11
-1612.30511
S    6.166528023    -1.675011319    -40.747457186
O    7.080986227    -0.667620282    -41.181236840
O    6.163696703    -3.012879704    -41.263040998
O    6.222120340    -1.801411687    -39.117111684
O    4.659776779    -1.044419030    -40.895026594
H    5.845088107    -2.607086312    -38.724768729
H    4.604053052    -0.080868515    -41.011627091
N    8.487208193    -5.085126134    -41.394501461
H    9.031077870    -4.689442692    -42.130577326
H    8.142681126    -5.973161532    -41.685062880
H    7.713081558    -4.479689939    -41.206235354
