11
-1612.55616
S    -0.772375618    -3.100958981    1.325850908
O    -0.169989684    -4.285120639    0.766207637
O    -1.285130967    -2.041572790    0.505562065
O    -2.034934770    -3.561420491    2.278489878
O    0.242424074    -2.529173633    2.437940376
H    -2.842293285    -3.031672126    2.193307988
H    1.043234043    -3.131797763    2.661494720
N    2.149062742    -4.531754444    2.480594282
H    3.053353375    -4.293200705    2.130783091
H    2.242390127    -5.126932010    3.276227624
H    1.618461587    -5.001431095    1.760159999
