11
-1612.46564
S    -9.152778477    -10.332242471    0.573074329
O    -7.733156598    -10.205831700    0.418686039
O    -10.055845529    -9.323674671    0.094961325
O    -9.653310741    -11.755503986    -0.084247036
O    -9.490725597    -10.648661102    2.121536276
H    -10.613065529    -11.869761094    -0.153732755
H    -8.908348888    -10.223516537    2.833249125
N    -7.898013361    -9.333896836    4.022427112
H    -7.841364317    -8.360085154    3.796912803
H    -8.307026550    -9.443306265    4.927993206
H    -6.977773457    -9.729037639    4.019464619
