11
-1612.50896
S    -9.447341775    -7.202651738    5.722770746
O    -8.553444701    -7.752452131    4.741828942
O    -10.172352385    -5.981078289    5.513244500
O    -10.592679038    -8.333499978    6.084903120
O    -8.664655168    -7.137950392    7.127580449
H    -11.446551000    -7.985837514    6.381161325
H    -7.744211307    -7.590961162    7.170868423
N    -6.160237720    -8.299182273    7.015287514
H    -6.242943947    -9.255980608    6.730997535
H    -5.682261464    -7.784712174    6.299572966
H    -5.649494017    -8.242731036    7.872228271
