11
-1612.55687
S    -6.170095436    -7.126256649    6.176597547
O    -5.949270729    -7.858856392    4.955080066
O    -6.792228172    -5.833662558    6.192425301
O    -7.074112191    -8.054408436    7.193083487
O    -4.770393742    -7.095634051    6.974492109
H    -7.708516252    -7.574278218    7.748112673
H    -3.996708875    -7.611266162    6.539788955
N    -3.145905690    -8.553702449    5.275694228
H    -2.824124491    -9.453807636    5.563584161
H    -3.936683359    -8.657281315    4.655283412
H    -2.410031544    -8.066644304    4.808490418
