11
-1612.45898
S    -0.279710637    -5.738965815    -28.677909658
O    1.035346495    -5.362176050    -29.105929433
O    -1.447212470    -5.251860818    -29.361490555
O    -0.422246415    -7.376146461    -28.659317174
O    -0.423345281    -5.432314806    -27.095225112
H    -1.314985611    -7.714295418    -28.838158417
H    -0.155897385    -4.498359063    -26.813526202
N    0.349587251    -2.738983886    -26.970921698
H    0.237876738    -2.456067840    -27.926872215
H    1.316422032    -2.666695494    -26.721457001
H    -0.194490144    -2.140981696    -26.383700904
