11
-1612.55825
S    7.899229153    -13.274533014    -39.410299406
O    7.710528698    -14.521816037    -38.715018372
O    7.875877834    -13.164895501    -40.839700234
O    6.756093718    -12.218423255    -38.861604909
O    9.223883194    -12.576550401    -38.814588919
H    6.475977461    -11.533076211    -39.484853730
H    9.497195866    -12.885271426    -37.873453845
N    9.347298298    -13.827226616    -36.372061282
H    10.194411706    -14.182091141    -35.983439809
H    8.836893880    -13.330158624    -35.671000532
H    8.782662852    -14.585389764    -36.726203653
