11
-1612.55838
S    -6.255538118    -6.429825621    0.744427328
O    -5.957288067    -7.626116959    -0.002117573
O    -5.387981809    -5.288281528    0.752692694
O    -7.727356757    -5.868091912    0.260583785
O    -6.612914455    -6.874683395    2.251345633
H    -7.885009960    -4.922301898    0.398187931
H    -6.757965261    -7.882552247    2.398014814
N    -6.707581712    -9.608914305    2.006241793
H    -6.080804460    -10.125475430    2.586553424
H    -7.590318366    -10.073055226    1.967738605
H    -6.327887292    -9.523653546    1.074523993
