11
-1612.28388
S    -7.738814035    -9.750591106    1.776077080
O    -6.700171356    -10.569323327    1.237597257
O    -8.296841899    -8.616884221    1.108004375
O    -9.001135358    -10.697615833    2.220878574
O    -7.247609332    -9.292929804    3.276826817
H    -9.889508447    -10.315013254    2.134382749
H    -6.508326068    -9.794336324    3.666108792
N    -6.075038428    -7.155814402    5.245677401
H    -6.576044920    -7.701996318    4.577799949
H    -6.496174464    -7.251646470    6.142452515
H    -6.086894789    -6.198458437    4.972059315
