11
-1612.45298
S    -2.108366273    -6.004542342    0.945039407
O    -1.308153962    -7.127385675    1.335252094
O    -2.184543967    -5.574654038    -0.423570069
O    -3.662826030    -6.233695326    1.435949723
O    -1.741504140    -4.739474825    1.878462697
H    -4.323070018    -5.671121641    1.002460268
H    -0.777367940    -4.588304135    2.146357597
N    0.893696118    -4.088009965    2.571647790
H    0.954875246    -3.111652084    2.360429154
H    1.604057735    -4.584572272    2.071432435
H    1.018077971    -4.226592509    3.554510090
