11
-1612.31283
S    -11.793620983    -7.852734220    2.615867166
O    -11.373223572    -8.758470825    1.587138707
O    -11.632764996    -6.435850048    2.545795836
O    -13.379494459    -8.135490761    2.916294110
O    -11.156790257    -8.412596134    4.014323339
H    -13.935749751    -7.376114121    3.152203453
H    -10.851782120    -9.337066783    4.019381490
N    -11.573272241    -11.683578624    0.550282558
H    -11.428189659    -10.777540397    0.950992414
H    -12.487793060    -12.001122608    0.784916993
H    -11.497708678    -11.612703733    -0.440658429
