11
-1612.51164
S    0.771919771    -3.437278436    1.853614173
O    1.482725537    -2.214352597    1.627412790
O    -0.323985315    -3.863642430    1.031916723
O    1.880829434    -4.672895311    1.801070826
O    0.371528205    -3.544830092    3.411792215
H    1.588575827    -5.482034773    1.359256694
H    1.137222655    -3.424917009    4.073810030
N    2.826003617    -3.391026194    4.687849119
H    3.230707265    -2.483629473    4.562215593
H    3.282403600    -4.046491663    4.079982417
H    2.927605499    -3.678166449    5.638359027
