11
-1612.25300
S    -3.442176651    -0.004735519    -1.337389864
O    -2.177124617    0.039813190    -0.675393813
O    -4.309472746    1.121862999    -1.480536521
O    -3.266833751    -0.633224282    -2.844528517
O    -4.274786226    -1.251114144    -0.672102910
H    -3.805281704    -0.227562589    -3.544904490
H    -3.839376553    -1.752713784    0.041011553
N    -4.755220650    -4.189046192    -1.653999161
H    -3.913428374    -4.527444058    -2.064979034
H    -5.532875378    -4.454683466    -2.215853120
H    -4.714883479    -3.194899725    -1.579513366
