11
-1612.30975
S    1.644464505    -1.706707012    -25.955802625
O    2.332997660    -2.779199377    -25.311019165
O    1.692246773    -1.487583625    -27.372471625
O    0.057348094    -1.738945514    -25.558563894
O    2.083967406    -0.334577860    -25.182255636
H    -0.570744023    -1.478840903    -26.254627949
H    2.607154541    -0.432489444    -24.368856308
N    2.811790241    -1.157814472    -30.216840403
H    3.621930969    -1.734865879    -30.157023858
H    2.116157826    -1.630463496    -30.751069449
H    2.459257260    -1.002319652    -29.292073838
