11
-1612.24464
S    -3.930499908    1.495661426    -3.738477040
O    -2.511551583    1.481743360    -3.904917176
O    -4.836594247    2.109628598    -4.656402041
O    -4.474182393    -0.046333596    -3.536247461
O    -4.205543440    2.041026331    -2.218749220
H    -5.258151860    -0.295055298    -4.055242068
H    -3.426548546    2.142004138    -1.646552585
N    -3.546448937    -2.856344331    -2.335703597
H    -3.675452118    -1.983762744    -2.803441307
H    -4.423086783    -3.189126379    -2.002743731
H    -2.923574473    -2.735566736    -1.568665617
