11
-1612.55793
S    -7.320132997    -5.977711999    -25.016988291
O    -6.915941756    -7.208216066    -25.649485286
O    -7.742020909    -4.829742282    -25.766382217
O    -8.561973043    -6.305990199    -23.985956243
O    -6.164981790    -5.577688883    -23.967075300
H    -9.229551738    -5.608891048    -23.893579086
H    -5.414789232    -6.268147248    -23.846217147
N    -4.468823310    -7.747384135    -24.193562404
H    -4.309945618    -8.362215001    -23.424061960
H    -3.606753167    -7.567218302    -24.664508249
H    -5.126096864    -8.162672243    -24.838764520
