11
-1612.55664
S    12.504844150    -16.446146840    -34.110475326
O    12.688898290    -17.847242188    -34.394946786
O    12.160451653    -15.496468703    -35.128773654
O    11.336611907    -16.293226063    -32.959566037
O    13.794033955    -15.952814001    -33.279650833
H    10.746509963    -15.530282803    -33.056979323
H    14.442757303    -16.691377489    -32.984961767
N    15.156700440    -18.336181595    -32.971596072
H    16.008926416    -18.392584430    -33.489343825
H    15.272172060    -18.781020679    -32.085799386
H    14.414299002    -18.787149090    -33.488497080
