11
-1612.30732
S    -8.403976642    -6.408293123    4.612857037
O    -7.150647153    -6.872371764    5.125841032
O    -8.543125186    -5.717571806    3.370042791
O    -9.429909888    -7.682458708    4.575018834
O    -9.097785452    -5.526829222    5.808557295
H    -10.066467939    -7.742762287    3.833369706
H    -8.759011089    -5.680007110    6.706593092
N    -9.300719640    -9.736713256    2.366659328
H    -8.723147832    -9.448879263    1.606592008
H    -9.399745201    -10.727766999    2.356507262
H    -8.890692966    -9.450559815    3.231187691
