11
-1612.31994
S    6.917761305    2.449652831    -43.038773912
O    7.036544575    1.177989925    -43.692592799
O    6.877284234    3.703829136    -43.717653649
O    5.615891644    2.378370793    -42.050062897
O    8.095104084    2.485684266    -41.900832006
H    5.233363823    3.207560412    -41.727423584
H    8.410632846    1.622353606    -41.576858976
N    7.599601692    -1.579023775    -42.409950334
H    8.493506528    -1.694719585    -42.839297512
H    6.979281510    -2.265553066    -42.783486573
H    7.248893945    -0.673377353    -42.649484774
