11
-1612.46173
S    -4.978974305    -0.539879777    0.838440759
O    -4.178419484    -1.263075650    -0.105167208
O    -5.343230396    0.831413584    0.610428990
O    -6.384913786    -1.347455756    1.112147167
O    -4.314995573    -0.672618678    2.306668843
H    -7.107239955    -0.814086919    1.478914428
H    -3.311656035    -0.543618242    2.367951094
N    -1.568260076    -0.132058378    2.114087171
H    -1.214417747    0.408386406    2.876718176
H    -1.041638070    -0.979419002    2.030120514
H    -1.483696468    0.393517475    1.264749089
