11
-1612.33817
S    -3.439228835    0.399237367    -2.125333110
O    -3.745620492    -0.768579707    -2.900361304
O    -3.215641496    1.691225383    -2.691574548
O    -4.609930145    0.581021054    -0.993651381
O    -2.193170402    -0.013753711    -1.151420309
H    -4.924221305    1.479699421    -0.807099765
H    -2.070832300    -0.970015511    -0.993770936
N    -4.206263850    -3.775549973    -2.205347744
H    -4.088458456    -2.802335879    -2.403963610
H    -3.966589967    -4.307106012    -3.013290065
H    -5.157760908    -3.950873385    -1.967745739
