11
-1612.55561
S    -7.398165309    -6.301676822    -23.281183789
O    -6.928275395    -6.847181526    -24.528279995
O    -8.478049001    -5.362547024    -23.194869197
O    -7.826959130    -7.568841396    -22.316251471
O    -6.114785630    -5.763547784    -22.466153868
H    -8.559336754    -7.414612082    -21.703520975
H    -5.225297200    -6.207988361    -22.709014605
N    -4.148945237    -7.312270963    -23.648587612
H    -3.373246438    -6.859932133    -24.085042402
H    -3.832521714    -8.118878217    -23.152567625
H    -4.821852028    -7.582151918    -24.350849721
