11
-1612.32133
S    -9.991811204    -8.487008873    3.021719874
O    -9.963647958    -9.429648344    1.942118895
O    -10.192606507    -7.084830600    2.840523478
O    -11.111892776    -8.986242156    4.106859746
O    -8.636177333    -8.746822329    3.897634938
H    -11.654458078    -8.307383761    4.538902685
H    -8.147746726    -9.570610805    3.718469683
N    -9.762986787    -12.238527028    0.715354601
H    -9.760659043    -12.094120881    -0.270089845
H    -10.563226860    -12.775010800    0.966045509
H    -9.802694698    -11.350870651    1.176569995
