11
-1612.30749
S    -2.387642159    -5.400150210    0.005776040
O    -2.382420704    -5.940127379    -1.315776669
O    -2.911091641    -4.109118670    0.342998503
O    -3.067555332    -6.473748116    1.033803745
O    -0.841073301    -5.461158030    0.551700589
H    -3.336361739    -6.138349525    1.907390674
H    -0.198404552    -5.955796779    0.018398424
N    -2.110263932    -2.260248487    2.690752593
H    -1.136160294    -2.473887710    2.706031415
H    -2.548592028    -2.839188101    2.000821397
H    -2.229429063    -1.304613514    2.436026757
