11
-1612.50694
S    10.267088876    -14.695234841    -36.424071136
O    9.984856815    -15.249081224    -37.709469837
O    11.359976114    -13.772774681    -36.222398312
O    8.903295885    -13.996615691    -35.835803966
O    10.451817128    -15.855276861    -35.303574771
H    8.954883797    -13.647866280    -34.933873581
H    11.405444890    -16.055455605    -35.030976234
N    13.242157272    -15.682693021    -34.992193918
H    13.153825317    -14.733891987    -35.326277486
H    13.801702867    -16.208469967    -35.631271246
H    13.675783380    -15.686020826    -34.093066571
