11
-1612.47458
S    3.878587079    1.291521360    -26.887577887
O    3.123208957    0.213310487    -26.317807978
O    3.278481917    2.208547956    -27.817458568
O    4.524386204    2.225534080    -25.698637960
O    5.236070053    0.689004951    -27.527463776
H    4.656798976    3.158598542    -25.934802248
H    5.127432813    -0.144735299    -28.091307105
N    4.376788676    -1.504997125    -29.060712968
H    5.005818166    -2.273676062    -29.167569630
H    3.583294279    -1.791903461    -28.516718713
H    4.071191208    -1.196850412    -29.962427246
