11
-1612.28294
S    7.049532111    7.488237480    -41.329405258
O    7.105496022    6.728303302    -42.543568840
O    6.728109410    8.881150851    -41.309609093
O    6.056115673    6.752961210    -40.256593307
O    8.476266526    7.252431423    -40.563062894
H    5.671449292    7.320563889    -39.565694256
H    9.038581461    6.528796418    -40.890775328
N    8.851860298    8.355134586    -44.648660913
H    8.542062215    8.469620407    -45.587510867
H    8.333574150    7.619310691    -44.211428045
H    8.696851948    9.201311695    -44.143458136
