11
-1612.25253
S    -1.622820907    -4.292033311    -25.858433519
O    -1.026521660    -5.201526023    -26.782792455
O    -2.899204791    -3.679211264    -26.056178353
O    -1.641953270    -4.971425332    -24.366597196
O    -0.517070413    -3.111118052    -25.571601362
H    -2.426043596    -4.813944843    -23.816499477
H    0.419928787    -3.377691885    -25.544638765
N    0.581758692    -1.231934956    -27.839204954
H    0.304219556    -1.654958745    -28.697609618
H    0.122778827    -1.683792337    -27.077812701
H    0.339592623    -0.266307324    -27.849572423
