11
-1612.50271
S    -5.045644787    0.898625017    0.123944750
O    -3.665338276    1.236344696    0.330988338
O    -6.089580484    1.885217724    0.119170626
O    -5.186658346    0.110883502    -1.319362623
O    -5.423508619    -0.296735029    1.130761111
H    -6.024190957    0.241755553    -1.787367767
H    -4.658882257    -0.732751538    1.659940461
N    -3.342883944    -1.391927372    2.573581222
H    -2.716870823    -1.873297546    1.958456192
H    -3.687863395    -2.022592756    3.267327031
H    -2.858989632    -0.632663305    3.013296226
