11
-1612.32075
S    16.441361528    -18.033886387    -29.373451846
O    15.862998502    -19.061897180    -30.180526566
O    15.702865811    -17.311195900    -28.377513673
O    17.758939460    -18.622856049    -28.603656857
O    17.145703740    -16.980436788    -30.408452528
H    17.876605405    -18.347813759    -27.672080021
H    17.246498292    -17.283630227    -31.327900432
N    16.199909639    -17.973990725    -25.438747135
H    15.523184693    -17.841176172    -24.717772245
H    15.892742010    -17.504858032    -26.270620936
H    16.258561197    -18.954018067    -25.624247564
