11
-1612.21922
S    -5.387218306    -1.503491527    -1.299953192
O    -4.842402528    -2.810894621    -1.479651924
O    -6.597690637    -1.049607098    -1.907951312
O    -5.538294248    -1.179348642    0.303166464
O    -4.174063378    -0.442309653    -1.612899228
H    -6.403158401    -0.862103416    0.609533572
H    -3.278775290    -0.816952833    -1.679021776
N    -4.004522244    1.649359552    1.175930628
H    -4.230881592    0.780281948    0.741383188
H    -4.837340130    2.165486890    1.350601225
H    -3.406138798    2.174670749    0.578778942
