11
-1612.29395
S    -6.054486333    -0.996955795    -0.432128955
O    -5.545848502    -2.327152340    -0.521385376
O    -6.191020451    -0.105595686    -1.546388834
O    -7.502686529    -1.014296929    0.328659200
O    -5.160540181    -0.220327497    0.707895047
H    -8.130247155    -0.309963498    0.091342304
H    -4.512670737    -0.753888141    1.198583104
N    -3.657178144    1.777703127    -1.284801986
H    -4.232674783    1.408233578    -2.016642889
H    -3.999024599    1.412140124    -0.420848207
H    -3.731073983    2.770333358    -1.276576409
