11
-1612.49124
S    10.301423507    -14.387538668    -38.958555310
O    11.072665550    -14.820823245    -40.088446545
O    8.991703814    -13.830545001    -39.102348441
O    10.308544803    -15.502703195    -37.800557795
O    11.253292128    -13.251515462    -38.188348092
H    10.299935913    -15.163639496    -36.832569305
H    12.050866404    -12.980881897    -38.658913185
N    10.551042282    -14.129423548    -35.430067960
H    11.074104670    -13.396791381    -35.878155198
H    9.715276513    -13.752667850    -35.031868135
H    11.101948941    -14.561936497    -34.718785494
