11
-1612.51029
S    -9.800448276    -8.686940695    2.778096932
O    -9.388576794    -9.541817200    1.685222071
O    -10.102337914    -7.305074793    2.582872193
O    -11.018189212    -9.455331698    3.513843677
O    -8.637058255    -8.817277043    3.931122302
H    -11.495293710    -10.161179159    2.953698289
H    -8.159418195    -9.659436775    3.956775379
N    -11.818344889    -11.152015216    1.466154386
H    -10.950111378    -10.947166394    0.993591507
H    -11.900171227    -12.135116032    1.613089174
H    -12.586417760    -10.830935387    0.913786120
