11
-1612.49623
S    15.354823330    -19.250114791    -29.342276437
O    16.680649544    -18.994699351    -29.819864932
O    14.286511672    -19.654468765    -30.211690725
O    15.455313269    -20.433101576    -28.181964542
O    14.872495527    -18.035524442    -28.401878434
H    14.794272880    -21.135984867    -28.236065106
H    15.438330477    -17.836190864    -27.576648164
N    16.491035567    -17.816380972    -26.147356632
H    16.395230815    -18.723499644    -25.732370247
H    16.215520380    -17.113006344    -25.493329077
H    17.445114644    -17.671686235    -26.415575895
