11
-1612.31407
S    -13.407136076    0.576033289    -17.829816377
O    -12.635002012    -0.461453453    -18.452247666
O    -13.853580351    1.738895875    -18.530264198
O    -14.728887937    -0.064511912    -17.110968412
O    -12.550433051    1.027943786    -16.511586612
H    -15.507601566    0.517692218    -17.051679584
H    -11.682731643    0.597514221    -16.388102793
N    -9.543105962    -0.495950381    -18.406764560
H    -9.110360633    -1.051587105    -19.113305501
H    -10.518481751    -0.724648544    -18.374140947
H    -9.447387081    0.464235930    -18.663467584
