11
-1612.54294
S    -5.878898629    -7.994539923    3.145751447
O    -4.446696796    -8.062580792    3.208935664
O    -6.565702659    -7.444731296    2.004608713
O    -6.519717811    -9.444521738    3.443625681
O    -6.337507462    -7.178031496    4.497634731
H    -7.112007679    -9.828025008    2.702510309
H    -5.666836059    -7.120577550    5.197361085
N    -7.876311656    -9.863208467    1.068224312
H    -8.833440758    -10.144834084    1.040199279
H    -7.355326083    -10.377960759    0.388011714
H    -7.802758200    -8.875418187    0.869206016
