11
-1612.55725
S    12.800038739    -15.787286140    -38.126631617
O    13.407043084    -16.706196086    -39.043785381
O    11.867889588    -14.767887455    -38.532620810
O    12.146967890    -16.590772019    -36.888391286
O    14.043510671    -15.040268275    -37.342087880
H    11.447125252    -16.077433943    -36.351294911
H    14.893081436    -15.503153674    -37.348927956
N    10.346866730    -14.671877496    -36.001823997
H    10.468981225    -14.204798818    -36.888329635
H    9.385568352    -14.907753834    -35.875601729
H    10.643774038    -14.068850668    -35.262676843
