11
-1612.31257
S    -11.567111353    1.861733609    -18.901595146
O    -11.040182945    0.536249867    -19.045357655
O    -12.221621150    2.576298544    -19.950071665
O    -12.586511624    1.862159235    -17.619395406
O    -10.359835705    2.773485570    -18.279988656
H    -13.365917747    2.439033743    -17.663124277
H    -9.608469017    2.296645750    -17.885595801
N    -9.895183779    -2.010231578    -17.691764088
H    -10.240613764    -2.769247309    -18.237584392
H    -10.313984972    -2.041350152    -16.788736356
H    -10.145533940    -1.150025883    -18.139346868
