11
-1612.28477
S    7.305952880    8.584826880    -40.234542960
O    7.789872232    7.271957614    -40.543948490
O    6.401548283    9.318496412    -41.059163076
O    6.661524233    8.563482767    -38.723650330
O    8.620666250    9.508125143    -39.914515712
H    5.907563280    9.156057749    -38.566679046
H    9.336456323    9.097855063    -39.403968171
N    8.517468944    5.817388287    -43.251574369
H    9.508484305    5.836402787    -43.339582204
H    8.212989600    4.874578324    -43.153517456
H    8.247764811    6.337710883    -42.439799945
