11
-1612.50686
S    -13.112975791    2.440984293    -13.091920175
O    -13.154507505    1.580002652    -11.944012587
O    -12.674483626    1.998694149    -14.384151796
O    -14.526965393    3.193363413    -13.256311401
O    -12.173681694    3.725838933    -12.646290911
H    -14.707759951    3.680806796    -14.133862932
H    -12.018704558    3.826897441    -11.696814514
N    -14.974720247    4.526057416    -15.670615107
H    -14.195912178    4.343001492    -16.274995717
H    -15.068085431    5.510836423    -15.526417580
H    -15.811257803    4.168409383    -16.086856395
