11
-1612.51306
S    -11.193267801    -8.132479209    -5.753448633
O    -10.427124332    -7.801781775    -6.922630449
O    -12.537614277    -8.631264461    -5.819450606
O    -10.348890908    -9.247835588    -4.878038876
O    -11.124005317    -6.882481800    -4.740597612
H    -10.873979387    -9.803339403    -4.284464124
H    -10.432716041    -6.154123123    -4.951940691
N    -9.231860839    -5.035232030    -5.547166571
H    -8.367982544    -5.527228926    -5.670939868
H    -9.096713059    -4.263364727    -4.927966952
H    -9.550162442    -4.704834735    -6.438473459
