11
-1612.55157
S    -11.158860103    -5.076013881    -22.230021966
O    -10.507527189    -5.107402056    -23.514498095
O    -12.492608832    -4.588091601    -22.046464016
O    -11.119946899    -6.600620415    -21.606338761
O    -10.159964333    -4.351597491    -21.186871195
H    -11.598962426    -6.738409443    -20.777668863
H    -9.194742873    -4.228350643    -21.502585799
N    -7.819005314    -4.323915933    -22.664923538
H    -7.357289809    -3.463295650    -22.867681933
H    -7.142430291    -5.026644573    -22.453091884
H    -8.370911847    -4.613223124    -23.459385437
