11
-1612.25247
S    15.000551989    -17.490983060    -29.510788460
O    14.963279393    -17.907019682    -30.877195062
O    14.835036813    -16.140430855    -29.078815638
O    13.959943930    -18.403445160    -28.632687857
O    16.393113159    -18.114351642    -28.894116820
H    13.509630080    -17.974989210    -27.881729524
H    16.898916630    -18.696346236    -29.485344380
N    15.179377434    -20.204962182    -26.258895299
H    16.081995110    -20.026071441    -25.877946818
H    15.086908273    -21.175113682    -26.460650929
H    15.056457348    -19.673947537    -27.094108251
