11
-1612.50732
S    -9.164309356    -7.101412120    4.313493915
O    -9.616822228    -7.586610028    3.042105198
O    -9.192030236    -5.715376858    4.679300640
O    -9.813128145    -7.974344655    5.505624660
O    -7.592516180    -7.605134125    4.457324851
H    -9.460113837    -7.777530757    6.439972159
H    -7.276334747    -8.224090421    3.786641765
N    -8.413579507    -7.084083932    7.754876125
H    -7.884068660    -6.404166952    7.240604923
H    -7.795088722    -7.761132279    8.151497456
H    -8.926982357    -6.629087837    8.480876414
