11
-1612.55907
S    16.246020490    -19.429706763    -28.084626735
O    17.195545132    -18.778441969    -27.218431948
O    15.995876012    -18.998670538    -29.429210191
O    16.674006465    -21.017454870    -28.201032995
O    14.862717129    -19.569507097    -27.268758457
H    16.491910518    -21.446609199    -29.049849243
H    14.934614456    -19.453099880    -26.253405895
N    15.786504279    -19.154240242    -24.692214578
H    16.662514002    -18.848018430    -25.091693353
H    15.414580950    -18.437795132    -24.105459077
H    15.932642393    -19.984842034    -24.157132301
