11
-1612.27354
S    11.433418125    -8.748376021    -42.721169170
O    12.475508463    -9.663878539    -43.065520224
O    10.715888659    -7.952567941    -43.663226086
O    10.316504707    -9.538778464    -41.809690560
O    12.035905157    -7.770854080    -41.547724939
H    9.524663496    -9.033210663    -41.552998465
H    12.902466264    -8.006085477    -41.179435293
N    9.356152359    -11.283871618    -39.404577455
H    9.994164030    -11.769826015    -38.815498295
H    8.711081313    -11.929316144    -39.802207682
H    9.854110694    -10.813486330    -40.130082221
