11
-1612.55420
S    -14.445570752    5.004576073    -15.070598850
O    -14.858086014    4.294607735    -13.896467935
O    -13.197823034    4.751770115    -15.743925129
O    -15.617207369    4.966544389    -16.182223723
O    -14.489426485    6.603684899    -14.677863890
H    -15.311897038    5.020166905    -17.153214075
H    -15.099113074    6.857314304    -13.970123843
N    -14.065436406    5.135511771    -18.502340220
H    -14.052158222    5.991702689    -19.015022274
H    -14.034060690    4.365081548    -19.136156483
H    -13.268062474    5.093771148    -17.884084085
