11
-1612.32717
S    -2.484479419    -0.570762288    -0.730178819
O    -2.812843071    -1.854864667    -0.201296681
O    -1.746997222    -0.359907499    -1.943789177
O    -3.850153057    0.320780743    -0.878232086
O    -1.747610141    0.271975213    0.462351991
H    -3.830695226    1.029277102    -1.549072256
H    -1.960684155    0.046959188    1.381173472
N    -1.755969435    2.320618947    -3.440523326
H    -1.519516678    1.599833489    -2.786528767
H    -0.933863850    2.573634140    -3.946445738
H    -2.411971007    1.943755218    -4.093283542
