11
-1612.29670
S    6.920036642    -6.232272066    -41.260876168
O    5.841882384    -6.954523322    -40.665377659
O    7.326311994    -6.406953470    -42.627260795
O    6.693229959    -4.624622630    -41.059464230
O    8.228179962    -6.444320188    -40.301516640
H    7.076063009    -4.043880454    -41.739499647
H    8.154014403    -7.100771423    -39.588241264
N    8.591833182    -9.175275598    -43.369087408
H    7.934866163    -9.607596256    -43.980380014
H    8.270668778    -8.256469301    -43.139739752
H    9.476052047    -9.113179846    -43.822460355
