11
-1612.55784
S    -10.463390196    0.050875657    -17.474508846
O    -10.196531134    -1.092877286    -18.310623593
O    -10.271917143    1.397154412    -17.931820765
O    -12.034885808    -0.021000170    -16.983016117
O    -9.709756882    -0.193612296    -16.073170139
H    -12.513272399    0.822361789    -16.978213746
H    -9.314926204    -1.133341066    -15.937747490
N    -8.903776033    -2.811575927    -16.365739057
H    -7.936340572    -3.052908403    -16.323694313
H    -9.442937182    -3.492523230    -15.872940273
H    -9.207791735    -2.769667901    -17.328529481
