11
-1612.55798
S    -6.156019210    -5.533714966    -0.884955516
O    -6.099323323    -6.784492518    -1.597062974
O    -5.554554266    -4.327849759    -1.374188706
O    -7.745135644    -5.168984297    -0.639688112
O    -5.695557929    -5.817456693    0.634370707
H    -7.972788352    -4.227961478    -0.641839447
H    -5.740048850    -6.795293527    0.932809793
N    -6.099729081    -8.558407038    0.738383686
H    -5.354662387    -9.182440560    0.964081564
H    -6.937877045    -8.857076351    1.191432355
H    -6.238235584    -8.544700246    -0.261678895
