11
-1612.32919
S    -9.477500641    -6.500970599    5.946513945
O    -8.143411584    -6.852548317    5.551196903
O    -10.654059471    -7.088125232    5.389379884
O    -9.606400020    -6.665387329    7.572276053
O    -9.555850244    -4.871759257    5.837272619
H    -10.478034475    -6.934674059    7.909699290
H    -8.720787512    -4.406722518    5.638817355
N    -5.649411923    -5.029176010    5.308202774
H    -4.874552025    -5.573175062    4.992366752
H    -6.466677165    -5.608496624    5.287628047
H    -5.474009676    -4.753090679    6.251114962
