11
-1612.55719
S    -4.497075020    -1.390010528    -1.744118094
O    -3.752487070    -1.008535391    -2.909435420
O    -5.936604934    -1.337984928    -1.693605873
O    -4.050759419    -2.853084847    -1.239721296
O    -3.902169223    -0.456419482    -0.523989471
H    -4.803201944    -3.449624487    -0.874963336
H    -3.088383482    0.030542864    -0.726594421
N    -6.482247032    -3.904565043    -0.467797680
H    -6.648452148    -4.132727625    0.489136982
H    -6.903930888    -3.014015139    -0.690612222
H    -6.869427147    -4.612777765    -1.055795756
