11
-1612.50847
S    -4.920613437    -7.433738713    3.894731316
O    -5.017823337    -6.914277774    2.561669742
O    -4.265050731    -6.732870644    4.961807971
O    -6.460723421    -7.721220903    4.428505585
O    -4.383177440    -8.950864211    3.829359410
H    -6.622750396    -7.560959874    5.367994180
H    -4.747666760    -9.539430086    3.080865515
N    -5.633272004    -10.351433338    1.766607728
H    -5.017227959    -10.656776849    1.040858419
H    -6.151885747    -11.130093630    2.117487305
H    -6.264142043    -9.661995687    1.402419280
