11
-1612.54394
S    -8.419623195    -14.145115483    -3.480904949
O    -9.125992746    -14.236678929    -4.733237110
O    -8.945040736    -14.700133758    -2.267556109
O    -6.920105773    -14.794810534    -3.662494136
O    -8.032624984    -12.594300060    -3.253621209
H    -6.464050602    -15.038622839    -2.842345056
H    -8.486346056    -11.926164454    -3.881240641
N    -9.600649758    -11.396178785    -5.197604599
H    -10.436864166    -10.939971568    -4.897878779
H    -9.823566266    -12.313458360    -5.557890077
H    -9.160238062    -10.853584983    -5.910738069
