11
-1612.22888
S    -6.533366497    -8.432061088    3.786760761
O    -5.778044365    -9.548315737    3.307942460
O    -7.099685258    -7.433243616    2.937066659
O    -7.759814117    -9.033397035    4.694476510
O    -5.654350013    -7.708309116    4.961795461
H    -8.559656228    -8.490382064    4.785396256
H    -4.996745470    -8.257938865    5.420494253
N    -8.932292750    -11.535535411    2.412959403
H    -8.362286230    -10.996808818    3.028603326
H    -9.350498906    -10.938182790    1.734571509
H    -8.371586200    -12.219954726    1.955299356
