11
-1612.25297
S    16.406152615    -19.422980708    -29.221814302
O    15.230632978    -19.513737606    -30.029176901
O    17.230901896    -18.262459041    -29.149240047
O    16.020406103    -19.868172767    -27.686030412
O    17.341738387    -20.725696866    -29.578979350
H    16.757140926    -20.048623920    -27.077688723
H    16.964424325    -21.392925671    -30.173520772
N    14.335523194    -18.615466736    -25.317332871
H    14.831363927    -19.047845787    -26.067732302
H    13.457305497    -19.067135690    -25.193752087
H    14.188043962    -17.652516966    -25.526303593
