11
-1612.55799
S    8.087760904    -11.260533621    -38.773700998
O    7.821623303    -12.675434739    -38.753977385
O    8.562856666    -10.571519480    -39.937610637
O    6.701998990    -10.484458040    -38.327613662
O    9.015557471    -10.919905924    -37.497713213
H    6.543940047    -9.620757360    -38.734557004
H    8.925994003    -11.565494111    -36.711504793
N    8.284445306    -13.063056817    -35.889235373
H    8.032504185    -13.561687026    -36.730581065
H    8.934346721    -13.600714312    -35.356050000
H    7.461918941    -12.896725266    -35.346573983
