11
-1612.55725
S    -0.851258558    -4.430040473    1.310710744
O    0.250226800    -5.272498763    0.919286866
O    -1.653556326    -3.716215517    0.360116150
O    -1.910642032    -5.331743838    2.191949001
O    -0.309660509    -3.427308920    2.451367002
H    -2.836764793    -5.047641776    2.158793765
H    0.662216562    -3.567856202    2.745226256
N    2.305450075    -4.290390488    2.727587250
H    2.090211147    -5.072586545    2.126099223
H    2.649719086    -4.615861981    3.605920168
H    2.995332747    -3.715489394    2.289867033
