11
-1612.52544
S    -9.290873389    -9.207688624    0.518457944
O    -9.867676092    -10.017632188    1.560761421
O    -8.377766766    -9.760335484    -0.440927392
O    -10.487021551    -8.515587541    -0.369827545
O    -8.646074150    -7.903242961    1.221036197
H    -10.303484366    -8.432725155    -1.320576767
H    -8.410430039    -8.012737040    2.204985556
N    -8.250696868    -9.027125770    3.740682664
H    -8.484783949    -8.571793017    4.596848448
H    -8.965063927    -9.701443860    3.504565621
H    -7.373334985    -9.494946587    3.840640331
