11
-1612.55720
S    -4.656809222    -0.647800622    -1.253160845
O    -3.237307522    -0.580557659    -1.020530799
O    -5.259196119    -1.604477930    -2.134119973
O    -5.394333054    -0.847498351    0.208513977
O    -5.170104605    0.840874307    -1.605294136
H    -6.235839679    -1.324105188    0.205773443
H    -4.604740795    1.598797757    -1.216939162
N    -3.147027489    2.261228038    -0.366524255
H    -2.555020963    1.451268054    -0.486216590
H    -2.725067360    3.059947080    -0.790432185
H    -3.281086744    2.429944981    0.609478015
