11
-1612.28086
S    -3.095078726    -0.904802942    -2.699138004
O    -2.314905098    -1.863999127    -3.416547073
O    -3.871014840    0.114780535    -3.326241305
O    -4.060636310    -1.707536422    -1.644008467
O    -2.102783290    -0.206472878    -1.589369512
H    -4.539744571    -1.180013203    -0.975772474
H    -1.226038618    -0.600401691    -1.467554239
N    -6.809399859    -2.759157218    -1.062255227
H    -5.872461388    -2.789394209    -1.404870022
H    -7.068992654    -3.651810863    -0.707176266
H    -7.426495523    -2.496831521    -1.798531654
