11
-1612.50279
S    -5.674687863    -4.211793010    -0.967905867
O    -5.209957923    -3.929883988    -2.296180201
O    -6.918476013    -3.712430235    -0.455269630
O    -5.609081093    -5.799699906    -0.704783980
O    -4.466452198    -3.720865945    0.045271809
H    -6.228666759    -6.191582936    0.007220019
H    -3.575708164    -3.715037151    -0.331377477
N    -7.347389450    -6.817146561    1.207529235
H    -7.246080209    -6.322722534    2.072336565
H    -8.274940831    -6.679967716    0.855245688
H    -7.183168838    -7.791764697    1.356011820
