11
-1612.56190
S    -1.561293408    -6.056730766    0.070636530
O    -0.180582375    -5.646501646    0.048689041
O    -2.136867522    -6.898696347    -0.936735177
O    -1.848197962    -6.816065928    1.504467308
O    -2.458242522    -4.730776497    0.274277801
H    -2.547270223    -7.486447144    1.500184665
H    -1.950346748    -3.894016855    0.568169304
N    -0.482540472    -2.897924501    0.969500754
H    0.203065951    -3.589002234    0.699072684
H    -0.363041953    -2.071316723    0.422906255
H    -0.372719195    -2.678431442    1.937777340
