11
-1612.28334
S    -10.234906244    -5.590456406    -21.809461292
O    -11.131942294    -6.676833428    -22.044946846
O    -10.479657522    -4.248550719    -22.237560492
O    -9.882738343    -5.492062356    -20.207583125
O    -8.760705417    -6.073331424    -22.337436033
H    -9.853078403    -4.598747550    -19.826878420
H    -8.666432016    -7.006552060    -22.612573540
N    -6.232733353    -7.360430362    -21.104446834
H    -5.356169132    -6.931485726    -21.300009707
H    -6.234448904    -7.714560321    -20.173828214
H    -6.969473194    -6.697834400    -21.216165575
