11
-1612.55811
S    -8.950108205    -6.470310794    -22.596652946
O    -8.120025858    -7.358766937    -23.370973399
O    -10.136873794    -5.862664796    -23.125182105
O    -9.431150001    -7.267247234    -21.236925451
O    -7.987897275    -5.352952204    -21.949422732
H    -10.277178271    -6.983621757    -20.858852306
H    -6.977308316    -5.500926491    -22.078897592
N    -5.506992515    -6.317994532    -22.613433813
H    -4.914152780    -5.800085395    -23.227242009
H    -5.946223097    -7.074413517    -23.118200480
H    -4.970851049    -6.682703347    -21.854352674
