11
-1612.55979
S    -8.224991675    -7.161747194    -0.989241798
O    -8.265803076    -8.600153402    -0.913331785
O    -7.899917705    -6.457774961    -2.195320846
O    -9.692408917    -6.579716123    -0.516988398
O    -7.311777339    -6.638070601    0.231567771
H    -9.955146845    -5.729805816    -0.900729871
H    -7.087603529    -7.333081068    0.950910904
N    -7.028689117    -8.959325206    1.705788813
H    -7.464859357    -9.456156661    0.942230932
H    -7.582417778    -9.056950991    2.531143105
H    -6.114096262    -9.324291207    1.868540949
