11
-1612.25954
S    -8.951852934    -5.911039593    3.343017530
O    -7.850423026    -5.653905115    2.472553394
O    -9.190929191    -5.205970815    4.564802154
O    -10.345840854    -5.841084236    2.482800787
O    -8.926372205    -7.519265313    3.681120380
H    -11.127333841    -5.500460284    2.950208039
H    -8.489648729    -8.096702599    3.029423333
N    -6.526794151    -8.257616069    5.710439888
H    -6.168488727    -7.400942391    6.072644428
H    -6.666935110    -8.902292357    6.455227940
H    -7.391411697    -8.087669226    5.243629449
