11
-1612.52698
S    -2.017676331    1.720928084    -4.021914705
O    -2.589997947    1.791519883    -5.335327617
O    -1.012954932    2.626672818    -3.549962457
O    -3.277963006    1.817938953    -2.947431015
O    -1.577621413    0.192142988    -3.728847913
H    -3.090033645    2.227273805    -2.093476215
H    -2.276248136    -0.496148627    -3.992435902
N    -4.043781928    -0.822355064    -4.497492485
H    -4.545138198    -0.242955857    -3.849200682
H    -4.408777140    -1.749608007    -4.477686416
H    -4.137881906    -0.433977752    -5.418998026
