21
Properties=species:S:1:pos:R:3:forces:R:3 -3140.47241=T energy=-31483.430423741735 free_energy=-31483.430423741735 pbc="F F F"
S       -3.01286288       9.23354225      22.58305753      -0.00035709       0.00001326      -0.00020362
O       -3.87783293       8.08337305      22.56506576       0.00001347       0.00004721      -0.00000247
O       -3.18652920      10.30655620      21.63301345       0.00008941      -0.00015950       0.00008893
O       -3.08513520       9.84745668      24.06355091      -0.00011845       0.00009796      -0.00028574
O       -1.49319596       8.76954188      22.60058258       0.00000122      -0.00012064       0.00012086
H       -2.76229448      10.76526679      24.03232797       0.00032535      -0.00021008       0.00008722
H       -1.36222950       8.11809019      21.85988599      -0.00001044      -0.00000483       0.00001222
C       -1.68901512       5.63514206      21.79002204       0.00003043      -0.00011036       0.00002981
C       -1.83551057       5.71885014      23.28529466       0.00005275       0.00008427      -0.00012875
C       -1.70666649       4.38489159      24.00941505       0.00003228       0.00000620       0.00007510
C       -0.32976195       3.79240227      23.83553278       0.00005174       0.00004625       0.00024575
O       -1.33283473       6.55143770      21.07126273      -0.00009173       0.00017539      -0.00003837
O       -2.04347006       4.45199970      21.28240490      -0.00016248      -0.00009990       0.00007349
O        0.58220495       4.32222408      23.24560277       0.00025959       0.00029539       0.00082614
O       -0.20984346       2.59005195      24.42626857      -0.00002027      -0.00022733      -0.00045025
H       -1.09907640       6.44156509      23.65200261       0.00006464      -0.00002567      -0.00008995
H       -2.82068607       6.17333491      23.45215377       0.00004873       0.00005300       0.00001871
H       -2.44254108       3.66352420      23.63953091       0.00014323       0.00005560       0.00003484
H       -1.88675335       4.51680803      25.08155774       0.00001720       0.00000809      -0.00008339
H       -1.92544519       4.51117461      20.31888771      -0.00017999       0.00003924      -0.00003795
H        0.70067139       2.29778691      24.25346778      -0.00019009       0.00003619      -0.00029229
