21
Properties=species:S:1:pos:R:3:forces:R:3 -3140.49692=T energy=-31483.787828295888 free_energy=-31483.787828295888 pbc="F F F"
S      -21.72171901     -17.05021369      -5.55489312       0.00007429       0.00009228       0.00004392
O      -22.94017611     -17.78355644      -5.89148618      -0.00012183      -0.00010192      -0.00005257
O      -21.81098312     -15.72977776      -5.02104309      -0.00003803       0.00000691       0.00000381
O      -20.85645710     -17.94689384      -4.57854293       0.00005817      -0.00002488       0.00002237
O      -20.81641717     -16.99412013      -6.86958617       0.00012782       0.00010080      -0.00013015
H      -20.71264072     -18.82591667      -5.00902357       0.00003463      -0.00007875       0.00001384
H      -20.63980825     -17.91215667      -7.15450259      -0.00009885      -0.00003940       0.00010449
C      -19.53484075     -22.74386662      -5.99756119      -0.00016834      -0.00022840       0.00011443
C      -20.21320854     -22.62018378      -7.34257643       0.00022197       0.00012147       0.00015545
C      -21.64603428     -22.10755912      -7.28601571       0.00006187      -0.00011337      -0.00004878
C      -21.73298875     -20.72232224      -6.70283331       0.00016591      -0.00010324       0.00021899
O      -18.34226150     -22.72983320      -5.82467117       0.00020098       0.00009768      -0.00003453
O      -20.41366986     -22.92708832      -4.98977771      -0.00003958       0.00006106      -0.00012216
O      -20.73262709     -20.08912728      -6.36117010      -0.00018284      -0.00001726      -0.00007984
O      -22.95265100     -20.25620751      -6.61224119      -0.00009656       0.00012141       0.00005680
H      -19.58219487     -21.97154090      -7.95433572      -0.00009571      -0.00000594       0.00000692
H      -20.18496211     -23.61697648      -7.79979366      -0.00009804       0.00000341       0.00000942
H      -22.27816840     -22.76808687      -6.68320038      -0.00002845       0.00017972      -0.00003232
H      -22.08364676     -22.07400808      -8.28960710       0.00001499      -0.00011422      -0.00010177
H      -19.88032130     -22.98549834      -4.18008663       0.00004257      -0.00002265      -0.00008003
H      -22.92187749     -19.32715188      -6.25023820      -0.00003480       0.00006574      -0.00006799
