21
Properties=species:S:1:pos:R:3:forces:R:3 -3140.30329=T energy=-31483.337949282504 free_energy=-31483.337949282504 pbc="F F F"
S       -4.21968989      -1.55244432      -2.00838047       0.00006178      -0.00001352       0.00013414
O       -3.82347324      -2.91769659      -1.85408693       0.00028175       0.00024378      -0.00032967
O       -4.89651181      -1.10605523      -3.21258537      -0.00029421       0.00004768       0.00034219
O       -5.05968267      -1.11969703      -0.73177478       0.00025879      -0.00025234       0.00029208
O       -2.97042935      -0.56657042      -1.76698879      -0.00002244       0.00005345      -0.00027968
H       -5.11010649      -0.14871973      -0.69580467       0.00016426      -0.00079225       0.00044014
H       -2.27782793      -0.77516805      -2.41844517      -0.00039121       0.00069486      -0.00018745
C       -6.88267136      -2.29557131      -5.84050328       0.00011728      -0.00006496      -0.00008248
C       -8.18296185      -2.75766780      -6.46965737      -0.00004935      -0.00004208       0.00005567
C       -9.44869294      -2.22730312      -5.80842656      -0.00003648       0.00002208      -0.00001615
C       -9.57342390      -0.72982373      -5.94167983       0.00000234       0.00016451      -0.00013572
O       -5.85251459      -2.21486887      -6.46681195      -0.00024098      -0.00010402       0.00010610
O       -6.99596840      -2.05984268      -4.53650786      -0.00001073       0.00003935       0.00010145
O       -8.81726470      -0.02087061      -6.56262732      -0.00003102      -0.00016859      -0.00014405
O      -10.65117803      -0.24825739      -5.29555688       0.00031292       0.00009611      -0.00025356
H       -8.13683285      -2.48415030      -7.52611238      -0.00002961      -0.00021052      -0.00002656
H       -8.16951072      -3.85444659      -6.42351661      -0.00007722      -0.00007217       0.00016586
H       -9.46375730      -2.48208342      -4.74323187      -0.00006644       0.00014227       0.00002447
H      -10.33522872      -2.68073171      -6.26460121      -0.00005282       0.00005023       0.00003749
H       -6.12572985      -1.79070788      -4.16537441      -0.00010649      -0.00002155       0.00000841
H      -10.64013636       0.71253508      -5.43958969       0.00021004       0.00018709      -0.00025300
