21
Properties=species:S:1:pos:R:3:forces:R:3 -3140.34823=T energy=-31483.8362638421 free_energy=-31483.8362638421 pbc="F F F"
S        1.90702679      -6.53969642      20.22489648       0.00008605       0.00015122      -0.00011271
O        1.95312067      -5.17488551      19.67180832      -0.00002688      -0.00047088       0.00040656
O        0.63112731      -7.15543413      20.41987000       0.00066820       0.00024736       0.00005791
O        2.81618103      -7.33519848      19.21760488      -0.00001636      -0.00044428      -0.00005950
O        2.78906961      -6.56202806      21.51163486      -0.00072339       0.00019467      -0.00029039
H        2.87178641      -8.27806021      19.46378853      -0.00007572       0.00035899       0.00000992
H        2.44547379      -5.89152698      22.17260972       0.00007470       0.00000847       0.00000149
C        2.94050220      -2.56462759      24.94560196       0.00032319       0.00036982       0.00022774
C        1.50618370      -2.27015403      24.57234328       0.00038385      -0.00055581      -0.00030565
C        1.25103127      -2.14040397      23.07775299       0.00026542      -0.00039679       0.00003564
C        1.56978468      -3.41622722      22.32702115      -0.00018704      -0.00002241       0.00024891
O        3.29011417      -3.07522497      25.97973241      -0.00008246      -0.00013685      -0.00020000
O        3.81670996      -2.14321481      24.00994590      -0.00017279      -0.00013059      -0.00001752
O        1.92633599      -4.42688328      22.93964693       0.00007362       0.00005357       0.00001271
O        1.41593695      -3.31933168      21.04813749      -0.00008619      -0.00002885      -0.00011146
H        0.89738394      -3.06294905      25.01277790      -0.00008053       0.00046629      -0.00011514
H        1.23610798      -1.33853510      25.08544631      -0.00028624       0.00015515       0.00026712
H        1.84931482      -1.33390162      22.64169103       0.00000540       0.00018825       0.00007869
H        0.19995009      -1.89872367      22.88697919      -0.00008342      -0.00006666      -0.00005374
H        4.69654969      -2.38819108      24.34055135      -0.00005326      -0.00000259       0.00003233
H        1.65339836      -4.22927208      20.51222995      -0.00000548       0.00006150      -0.00011261
