21
Properties=species:S:1:pos:R:3:forces:R:3 -3140.31396=T energy=-31483.31090611605 free_energy=-31483.31090611605 pbc="F F F"
S        6.52997595      -8.72977404      18.96937525      -0.00023949       0.00045558       0.00013275
O        7.69218210      -9.45523077      19.41052244       0.00007415      -0.00023961      -0.00024331
O        5.93222719      -8.93173135      17.67794211       0.00022829       0.00062326      -0.00008214
O        5.43406072      -8.86672280      20.11701728      -0.00005806      -0.00020188      -0.00039607
O        6.84368100      -7.14633471      19.04189864       0.00007281      -0.00019199       0.00035054
H        4.62502984      -8.32042475      19.89910221      -0.00026906       0.00002775      -0.00015224
H        7.26052544      -6.95933952      19.90010996       0.00020490      -0.00045402       0.00062324
C        2.67242469      -8.24379175      21.37397516      -0.00004328      -0.00006794      -0.00001039
C        1.31544006      -7.96686317      21.96231750      -0.00005651      -0.00009012      -0.00008142
C        1.27096297      -7.98875937      23.48770855       0.00000819       0.00002985       0.00024796
C        2.14458743      -6.91703628      24.09039044       0.00008464       0.00003505      -0.00025380
O        3.06164741      -7.76800893      20.32058159      -0.00018971      -0.00022404       0.00007921
O        3.37745634      -9.11689554      22.09388598       0.00003974       0.00010222      -0.00013804
O        2.79769090      -6.11935846      23.45966165      -0.00026998       0.00010617      -0.00009190
O        2.11808784      -6.92897131      25.43546475       0.00003135      -0.00000215      -0.00021887
H        0.97732452      -7.00876392      21.56110564      -0.00005022      -0.00025307       0.00002715
H        0.64563053      -8.73756114      21.56018252       0.00000644      -0.00012492       0.00015197
H        1.60734349      -8.95985867      23.86682966       0.00013943       0.00016331       0.00004523
H        0.24676093      -7.83658020      23.84388280       0.00006655      -0.00015578       0.00008784
H        4.23466335      -9.27994801      21.64917844      -0.00002770      -0.00003840      -0.00007555
H        2.70946144      -6.21245638      25.72037796       0.00024706       0.00050035      -0.00000232
