21
Properties=species:S:1:pos:R:3:forces:R:3 -3140.40423=T energy=-31483.344328719002 free_energy=-31483.344328719002 pbc="F F F"
S      -11.68010711      -1.85782280      -8.52416772      -0.00013003       0.00048814       0.00047380
O      -11.48414390      -3.19535123      -9.03893010      -0.00053334      -0.00051284       0.00016409
O      -10.92857370      -0.74362417      -9.03229102       0.00028458      -0.00044417      -0.00018011
O      -13.24051840      -1.52032037      -8.52731482      -0.00008494       0.00046603      -0.00014687
O      -11.47158447      -1.88238624      -6.93936233       0.00013626      -0.00020409      -0.00034145
H      -13.54173006      -1.48791617      -9.46262907       0.00004345       0.00018090       0.00007420
H      -11.77135804      -2.74615044      -6.60635389      -0.00004395      -0.00057445       0.00028169
C      -10.63408159      -0.83125536     -14.28768049       0.00001158       0.00014625      -0.00034397
C      -10.68358867      -2.03927287     -13.38022180       0.00006987       0.00026226      -0.00018311
C      -11.60566671      -1.88020493     -12.17887962       0.00013739       0.00034589       0.00040436
C      -13.03418782      -1.63873814     -12.58943792       0.00016379       0.00006244       0.00012791
O      -10.38631213      -0.86220307     -15.46653552       0.00038606      -0.00030999       0.00031639
O      -10.84373311       0.32109902     -13.61781731      -0.00049582       0.00021565      -0.00038767
O      -13.45304875      -1.61902413     -13.71908274      -0.00003669      -0.00046976      -0.00005640
O      -13.84349436      -1.44305990     -11.51860216       0.00032422       0.00003189       0.00015879
H      -10.96662525      -2.89152589     -14.00353274       0.00005670       0.00005325       0.00022824
H       -9.65602438      -2.22010759     -13.04006986       0.00016104       0.00010844      -0.00001366
H      -11.28361780      -1.04151165     -11.55083999      -0.00020242       0.00009326      -0.00030595
H      -11.57377387      -2.76970331     -11.53630816       0.00027553      -0.00012389      -0.00002702
H      -10.78845526       1.02899372     -14.28075887      -0.00039300      -0.00008992      -0.00016381
H      -14.73408382      -1.28614727     -11.88171559      -0.00013004       0.00027457      -0.00008005
