21
Properties=species:S:1:pos:R:3:forces:R:3 -3140.30154=T energy=-31483.413344466026 free_energy=-31483.413344466026 pbc="F F F"
S      -15.77789698      -6.36018310      -2.65173596      -0.00059207       0.00029488      -0.00000099
O      -14.39285006      -6.55780894      -2.32537036       0.00023508       0.00008810      -0.00012493
O      -16.21783312      -5.40036243      -3.62785155       0.00030422      -0.00028402      -0.00000203
O      -16.34773862      -7.81106649      -3.04165632      -0.00018139       0.00007778      -0.00006941
O      -16.61606412      -6.05474181      -1.32094891       0.00014467      -0.00021943       0.00016478
H      -17.25715856      -7.70885819      -3.37385476       0.00019686      -0.00004696       0.00007180
H      -16.48102983      -6.79822167      -0.68186776      -0.00009225       0.00009926      -0.00002215
C      -18.00353498     -10.56044565       1.64042693      -0.00004249       0.00017546      -0.00030856
C      -18.17008878     -10.93261079       0.18534372       0.00005966      -0.00003189       0.00001812
C      -18.99148862      -9.93460559      -0.62362281      -0.00031579       0.00002193       0.00030172
C      -18.36582512      -8.56801017      -0.62948877       0.00005579       0.00002861      -0.00026827
O      -17.04611549     -10.83090444       2.31983442       0.00000182      -0.00006108       0.00017699
O      -19.08974660      -9.92781765       2.13331042       0.00005555      -0.00006145       0.00027317
O      -17.36165399      -8.28348666       0.00171776      -0.00008116      -0.00003516       0.00002129
O      -19.01636438      -7.70224759      -1.40879833      -0.00006533      -0.00021416       0.00005364
H      -17.16516055     -11.05309793      -0.22641338      -0.00005806       0.00006419      -0.00001955
H      -18.64885233     -11.91969584       0.16179328      -0.00005706       0.00002094      -0.00004723
H      -20.00365814      -9.84111324      -0.21505122       0.00008813       0.00009784       0.00012363
H      -19.08971955     -10.26571766      -1.66318960       0.00025396      -0.00012939      -0.00022037
H      -18.88400449      -9.73445208       3.06287282       0.00000258      -0.00002655      -0.00020574
H      -18.53538802      -6.84988250      -1.37635588       0.00008735       0.00014082       0.00008453
