21
Properties=species:S:1:pos:R:3:forces:R:3 -3140.53228=T energy=-31483.69103343394 free_energy=-31483.69103343394 pbc="F F F"
S       -4.19457824     -22.61674758       7.57736266      -0.00018690      -0.00010810      -0.00009054
O       -4.90845566     -23.16186491       6.46249712       0.00029325       0.00008351       0.00023460
O       -3.03113622     -21.77289519       7.36863838       0.00029171       0.00011873       0.00001624
O       -5.22904658     -21.88111390       8.50997775       0.00003822       0.00023680      -0.00016832
O       -3.64216489     -23.78546210       8.52728255      -0.00013947       0.00025554       0.00000583
H       -4.75166939     -21.46510296       9.27791028       0.00017950       0.00014243      -0.00013193
H       -4.37806687     -24.37767195       8.75187031      -0.00035847      -0.00010794       0.00000122
C       -2.68575070     -19.99454160      10.16950684       0.00014135      -0.00003512       0.00017835
C       -2.03858747     -19.09077104      11.19566925       0.00009656      -0.00005269       0.00000811
C       -1.08735951     -18.04196605      10.62834911      -0.00004292       0.00001037       0.00004780
C       -1.80340133     -17.05044285       9.74510374       0.00003278      -0.00013685      -0.00011432
O       -3.77465007     -20.51438193      10.36895718      -0.00003771      -0.00010969       0.00002494
O       -1.94695051     -20.20668390       9.10337153       0.00009060       0.00012052      -0.00005519
O       -2.99452982     -17.03495881       9.54210075      -0.00026275      -0.00014980      -0.00021958
O       -0.96380627     -16.15110439       9.20046237      -0.00012362      -0.00014007      -0.00035097
H       -2.84551309     -18.63237117      11.77163678       0.00038571       0.00013670       0.00008637
H       -1.49650573     -19.75398302      11.88158659       0.00033663       0.00027418      -0.00000022
H       -0.29409862     -18.51715299      10.04101903      -0.00008619       0.00014763      -0.00017487
H       -0.60355103     -17.48673659      11.43889970      -0.00035807      -0.00064000       0.00062743
H       -2.40978603     -20.83669240       8.49116723      -0.00002197       0.00006843       0.00011817
H       -1.51616607     -15.56686962       8.65482186      -0.00026878      -0.00011435      -0.00004328
