21
Properties=species:S:1:pos:R:3:forces:R:3 -3140.38055=T energy=-31483.185331816945 free_energy=-31483.185331816945 pbc="F F F"
S       -1.98778771     -15.12739650      12.46053488       0.00015013       0.00021784      -0.00019061
O       -1.43456447     -13.92931843      11.88754842      -0.00026840      -0.00035048       0.00003830
O       -1.81063669     -16.43839418      11.90474608       0.00003973       0.00018299       0.00009082
O       -1.51107825     -15.13960709      14.00507056       0.00013852       0.00009719       0.00003386
O       -3.57521640     -14.91668138      12.64146678       0.00005502      -0.00008884      -0.00005876
H       -1.77869456     -15.98509152      14.40465211      -0.00011641      -0.00018363       0.00006848
H       -3.75121667     -13.96078525      12.67708654       0.00000818       0.00011637       0.00001620
C        2.83524214     -15.49352124      14.40556050      -0.00010516       0.00016718       0.00012641
C        1.75191295     -15.05426896      13.44856665       0.00002360       0.00014508      -0.00000989
C        1.42852287     -13.56903919      13.50603810       0.00000191       0.00005174      -0.00007381
C        2.63728374     -12.72223752      13.20027251      -0.00034595       0.00008178       0.00006360
O        3.56204570     -16.43854054      14.23568905       0.00014659      -0.00021846      -0.00006839
O        2.86733567     -14.73690567      15.52124587       0.00017327       0.00001252       0.00016290
O        3.71261257     -13.14897471      12.85274716       0.00037536      -0.00017971      -0.00010054
O        2.38987990     -11.41032106      13.35080353      -0.00006700       0.00005484       0.00007617
H        2.07330738     -15.35842750      12.44819617      -0.00000482      -0.00003860      -0.00005703
H        0.85818121     -15.64191133      13.69248910      -0.00002468      -0.00004443       0.00002503
H        1.05667504     -13.28523239      14.49648019      -0.00003681       0.00000022       0.00004243
H        0.64301268     -13.32189632      12.78229167       0.00008136      -0.00001381       0.00005689
H        3.58758862     -15.09430211      16.06664192      -0.00021928       0.00002465      -0.00020396
H        3.22315592     -10.95634303      13.14199424      -0.00000546      -0.00003433      -0.00003779
