21
Properties=species:S:1:pos:R:3:forces:R:3 -3140.28335=T energy=-31483.188110174466 free_energy=-31483.188110174466 pbc="F F F"
S       -0.67123673       2.10299842      -2.55748918       0.00031284      -0.00012037      -0.00052374
O       -0.26124528       2.16089265      -3.93317378      -0.00040370       0.00009835       0.00056565
O       -0.69431197       0.89616096      -1.77544299      -0.00008658       0.00012147      -0.00008464
O        0.21046290       3.19951643      -1.77405845      -0.00015283       0.00002140      -0.00083393
O       -2.14389180       2.74699396      -2.41686522       0.00030273      -0.00028789       0.00055557
H        0.22777477       2.95123861      -0.83428952      -0.00014387      -0.00004901       0.00068239
H       -2.19133488       3.53053917      -2.99051552       0.00007900       0.00021022      -0.00033863
C       -2.42952491      -2.18466498      -4.32911771      -0.00046790      -0.00016467       0.00049390
C       -2.84433731      -0.95474199      -3.55709158      -0.00021219      -0.00033450       0.00030231
C       -3.07558108       0.27696009      -4.41813311      -0.00005646      -0.00006938       0.00004375
C       -4.13051694       0.04566230      -5.46830425      -0.00020623      -0.00039101      -0.00022721
O       -2.65658313      -3.31885803      -3.99396979      -0.00001212       0.00025696       0.00000598
O       -1.71087576      -1.87641907      -5.42727396       0.00033963       0.00013649      -0.00036943
O       -4.79120477      -0.95918729      -5.57993220       0.00037511       0.00066954       0.00018326
O       -4.26788447       1.10245674      -6.28564339      -0.00011462      -0.00019073      -0.00010681
H       -3.73704199      -1.22607081      -2.98754746       0.00039815       0.00019592      -0.00008331
H       -2.04323578      -0.75103378      -2.83259887      -0.00020826      -0.00005303      -0.00029203
H       -2.15033870       0.57879683      -4.92017490      -0.00003729      -0.00001858       0.00004514
H       -3.38300439       1.12775468      -3.79795988       0.00002281      -0.00003546      -0.00002138
H       -1.49167123      -2.72280423      -5.85095507       0.00016626      -0.00005066      -0.00013013
H       -4.95530178       0.85723854      -6.92723499       0.00010540       0.00005427       0.00013297
