21
Properties=species:S:1:pos:R:3:forces:R:3 -3140.29490=T energy=-31483.340027779388 free_energy=-31483.340027779388 pbc="F F F"
S        3.16238732      -0.45285207      24.02538944       0.00036804      -0.00041848      -0.00045054
O        3.69109432      -1.45570015      23.14308783      -0.00028038       0.00014150       0.00044048
O        1.75788877      -0.36076018      24.32991718       0.00008893       0.00020105      -0.00042993
O        4.01789817      -0.53933774      25.37089540       0.00000751      -0.00067508      -0.00007796
O        3.57972480       1.01550549      23.49774884      -0.00006452      -0.00002041       0.00007946
H        3.81528159       0.26010029      25.90339169      -0.00047943       0.00046791       0.00047731
H        4.54801469       1.06542144      23.43486698       0.00035448       0.00019730       0.00012128
C        3.54362156       3.28444809      25.62011094      -0.00003131       0.00008282      -0.00004073
C        2.09669107       3.25174489      25.19561333       0.00025153       0.00016493      -0.00057358
C        1.18483720       2.39592119      26.06158630      -0.00007743       0.00017589      -0.00028348
C        1.20513188       2.82855019      27.50618878      -0.00000378       0.00029814       0.00065494
O        4.31718496       4.16128303      25.34490861      -0.00027847      -0.00002701      -0.00007288
O        3.93601012       2.18406526      26.32838004       0.00037068       0.00022006       0.00033540
O        1.81300563       3.78091664      27.93281314       0.00025264      -0.00039599       0.00048508
O        0.45130880       2.03526292      28.28638167       0.00031281       0.00033021      -0.00052943
H        1.76770588       4.29419879      25.17673168      -0.00025378      -0.00047024       0.00024047
H        2.09263337       2.88841721      24.16236756      -0.00044925       0.00017747      -0.00033231
H        1.45942025       1.33681046      25.99736226       0.00037286      -0.00070040       0.00007872
H        0.15194888       2.46490153      25.70122001      -0.00018889       0.00029951      -0.00014929
H        4.85768908       2.36235373      26.59442245      -0.00015208      -0.00005042      -0.00028634
H        0.54016861       2.38752296      29.18773723      -0.00012040       0.00000182       0.00031354
