21
Properties=species:S:1:pos:R:3:forces:R:3 -3140.33721=T energy=-31483.83626424758 free_energy=-31483.83626424758 pbc="F F F"
S       -0.99107807       2.23319975      -3.28405417      -0.00007743      -0.00022057      -0.00011315
O       -0.51822809       1.73141995      -4.53692530      -0.00006151       0.00014883       0.00044143
O       -2.15714331       3.13376225      -3.28108510       0.00013775      -0.00034606       0.00005651
O       -1.26146128       1.10071300      -2.24553092       0.00002329       0.00027103      -0.00024135
O        0.08971077       3.08965295      -2.52747755      -0.00014177       0.00004330      -0.00013609
H       -2.10013617       0.60840068      -2.48795087      -0.00001555      -0.00003710      -0.00006376
H        0.93570341       2.60757340      -2.45993361       0.00019060       0.00000196       0.00000930
C       -6.00897022      -1.09106874      -1.57416188       0.00007227       0.00025300      -0.00008275
C       -6.27146869      -0.82425894      -3.03813102       0.00007749      -0.00006306       0.00000429
C       -6.01579939       0.60935658      -3.47984556      -0.00015735      -0.00001228      -0.00001734
C       -4.57187046       1.02211660      -3.28592055      -0.00000024      -0.00005496      -0.00016332
O       -5.77110840      -2.17558727      -1.10555688       0.00003209      -0.00035832       0.00012681
O       -6.12069587       0.01991539      -0.81653837      -0.00006452       0.00018334       0.00006801
O       -3.74096995       0.20713400      -2.87449804      -0.00004989      -0.00006251       0.00005110
O       -4.33607349       2.25263628      -3.60029221       0.00016373       0.00011134       0.00004691
H       -5.65705928      -1.53000104      -3.60165098      -0.00005607      -0.00002134      -0.00003238
H       -7.31862867      -1.09647669      -3.22120249       0.00015481       0.00006644       0.00000646
H       -6.64524875       1.31335313      -2.92602343      -0.00011368       0.00009288       0.00012919
H       -6.25484741       0.73268264      -4.54155386       0.00012676       0.00001377      -0.00008306
H       -5.92443163      -0.25815674       0.09317916      -0.00005054      -0.00006612      -0.00001761
H       -3.30561101       2.54875551      -3.45180943      -0.00019078       0.00005675       0.00001101
