21
Properties=species:S:1:pos:R:3:forces:R:3 -3140.35212=T energy=-31483.451606082206 free_energy=-31483.451606082206 pbc="F F F"
S      -20.53014249     -11.51651822      -4.54058441       0.00003194       0.00002075      -0.00013879
O      -20.96147038     -11.65775389      -5.90384997       0.00004518      -0.00000447       0.00026202
O      -20.77915147     -10.33163863      -3.76793205      -0.00008128      -0.00006545      -0.00002027
O      -21.18957484     -12.79259671      -3.76312924      -0.00000321       0.00011033      -0.00012098
O      -18.99495216     -11.86211267      -4.38287150      -0.00006597      -0.00019392      -0.00007269
H      -20.84493651     -12.81478795      -2.85257150       0.00002277      -0.00000128       0.00005541
H      -18.82520101     -12.77985278      -4.72213463       0.00005195       0.00011143       0.00001757
C      -19.21001067     -15.48976342      -4.62389311      -0.00018395      -0.00009969      -0.00002903
C      -18.63553398     -16.88233620      -4.51275114      -0.00002956      -0.00001860      -0.00000554
C      -19.56977043     -17.99532864      -4.97702762      -0.00009614       0.00006628       0.00002804
C      -19.90102629     -17.87725095      -6.44373757       0.00000325      -0.00003463       0.00012660
O      -18.52767005     -14.51123859      -4.86895643       0.00011697       0.00013167      -0.00000705
O      -20.51284500     -15.44285901      -4.36637547       0.00007915      -0.00004208       0.00003383
O      -19.47018250     -17.02665656      -7.18606907       0.00005551       0.00009372      -0.00008883
O      -20.73917852     -18.84421825      -6.85952123      -0.00005531      -0.00007784      -0.00006002
H      -17.69436945     -16.88571579      -5.06617281       0.00002310      -0.00000210       0.00001105
H      -18.38682943     -17.02518434      -3.45379721      -0.00000898      -0.00000610       0.00000535
H      -20.50663983     -17.97066787      -4.40964819       0.00008824      -0.00001162      -0.00005217
H      -19.11233945     -18.97568813      -4.80737733      -0.00000377       0.00000513       0.00000025
H      -20.81242859     -14.51090042      -4.40987063       0.00000073       0.00000737       0.00000491
H      -20.89047159     -18.67763749      -7.80481302       0.00000960       0.00001080       0.00004982
