21
Properties=species:S:1:pos:R:3:forces:R:3 -3140.19303=T energy=-31483.35824807933 free_energy=-31483.35824807933 pbc="F F F"
S      -13.53731917     -24.50570535       2.73251783       0.00014173       0.00002765      -0.00009817
O      -13.22116542     -25.76525149       2.09727093       0.00010055      -0.00006795      -0.00000709
O      -14.58444651     -23.66612501       2.22084806      -0.00025189       0.00021148      -0.00014863
O      -13.82722802     -24.80684212       4.29827360      -0.00023991      -0.00027016       0.00032169
O      -12.24075870     -23.63338556       2.92379982       0.00012496      -0.00000171      -0.00010461
H      -14.49487729     -25.51214020       4.35971961       0.00007115       0.00010009       0.00004341
H      -11.42234644     -24.19408405       2.86366214      -0.00001004      -0.00003623      -0.00003436
C      -10.22712515     -26.12150930       6.48011907       0.00003878       0.00084106      -0.00028313
C      -11.04238920     -24.97208447       5.93619318       0.00001431      -0.00003314      -0.00006616
C      -10.23039259     -23.75085041       5.50911021      -0.00012565       0.00006521      -0.00001854
C       -9.36533592     -24.03694270       4.30653343      -0.00004792      -0.00011903      -0.00009441
O      -10.58329387     -26.88896200       7.33721821      -0.00028011      -0.00066904       0.00047103
O       -9.03093066     -26.21984113       5.86153784       0.00030065      -0.00046605      -0.00013041
O       -9.76757677     -24.55881074       3.28136054       0.00007684       0.00014692       0.00016326
O       -8.11078631     -23.61880706       4.43629470       0.00001979       0.00000608       0.00000679
H      -11.59536515     -25.35764622       5.07144330      -0.00004112       0.00003208       0.00001670
H      -11.78502699     -24.71441188       6.69483815      -0.00002343       0.00000085       0.00003748
H       -9.60001598     -23.36756951       6.31661877      -0.00002751      -0.00008722      -0.00003336
H      -10.92236343     -22.95600550       5.20390569       0.00012027      -0.00001074       0.00001338
H       -8.58381274     -26.99059156       6.24818991       0.00001479       0.00032707      -0.00001867
H       -7.64948898     -23.86637737       3.61684229       0.00002370       0.00000288      -0.00003655
