21
Properties=species:S:1:pos:R:3:forces:R:3 -3140.29055=T energy=-31483.24475347213 free_energy=-31483.24475347213 pbc="F F F"
S        3.98197754     -15.53136645      14.85715701      -0.00013516       0.00010460       0.00015671
O        3.83814989     -16.95632725      14.98228043      -0.00008725      -0.00057197       0.00003374
O        4.12909824     -14.85838286      13.59603856       0.00007440       0.00013137      -0.00046945
O        2.78420578     -14.88689568      15.69190835      -0.00005043      -0.00018406       0.00011852
O        5.26197739     -15.08608529      15.74893254      -0.00001550       0.00062833      -0.00033276
H        2.78038608     -13.91295796      15.55726744       0.00000085       0.00016408      -0.00007991
H        5.40448388     -15.77074717      16.42451165       0.00004920      -0.00035454       0.00040126
C        6.30139324      -9.70659473      17.36740511      -0.00015860      -0.00026470       0.00012903
C        6.55413465     -10.93029473      16.51661874       0.00002778      -0.00010395       0.00000286
C        5.33361282     -11.82273012      16.32759402      -0.00013494       0.00010371      -0.00001114
C        4.20244429     -11.09070359      15.65222472      -0.00001025       0.00010884       0.00013399
O        6.90064743      -8.66526120      17.27592397       0.00020548       0.00043221      -0.00001579
O        5.35415732      -9.92165545      18.30461738      -0.00001526      -0.00013816      -0.00013882
O        4.21614079      -9.93975452      15.29754952       0.00001948      -0.00024371       0.00005687
O        3.12055551     -11.88890895      15.46236445       0.00015616       0.00005567      -0.00003994
H        6.95257456     -10.57538438      15.56297524       0.00001317       0.00005988      -0.00006923
H        7.35792288     -11.49361688      17.00711975       0.00005174      -0.00003652       0.00006299
H        4.97150315     -12.18033865      17.29894386       0.00005285      -0.00002348      -0.00001727
H        5.57884238     -12.71211824      15.73563090       0.00004809      -0.00006282      -0.00004436
H        5.26936417      -9.08623572      18.79304510      -0.00001321       0.00023089       0.00008660
H        2.44967957     -11.33138509      15.02758870      -0.00007870      -0.00003572       0.00003619
