21
Properties=species:S:1:pos:R:3:forces:R:3 -3140.33597=T energy=-31483.332523943383 free_energy=-31483.332523943383 pbc="F F F"
S        4.71102720     -13.17395927      18.49923761      -0.00034482       0.00009681       0.00021458
O        5.30702974     -14.36683086      17.98293653      -0.00040609      -0.00042903       0.00012445
O        5.43825907     -11.91757914      18.49385798       0.00032081       0.00006127      -0.00018105
O        3.29245298     -12.97688291      17.81250112      -0.00053930       0.00065558       0.00008707
O        4.17392029     -13.40803740      19.99859521       0.00003299      -0.00031337       0.00027281
H        2.76644068     -12.34976933      18.33830902       0.00029229       0.00000837       0.00029136
H        4.92916505     -13.64072886      20.56697945       0.00011763      -0.00039402       0.00000073
C        6.99825398      -9.46275185      16.59337850      -0.00011683      -0.00000484      -0.00028176
C        7.89647182      -8.91939246      15.49925242       0.00020003       0.00019437      -0.00000191
C        7.90428500      -9.72588760      14.20678428       0.00023128       0.00019211      -0.00002396
C        6.56125804      -9.71087559      13.51996935      -0.00008249       0.00002736       0.00002396
O        6.50174560      -8.75510505      17.43728780      -0.00035771      -0.00029533      -0.00000351
O        6.88029217     -10.78679843      16.55117523       0.00016785      -0.00006723      -0.00011575
O        5.59900703      -9.07848645      13.88615124       0.00012575       0.00000123      -0.00044763
O        6.54391084     -10.48117709      12.41666458       0.00004482      -0.00014222       0.00004864
H        7.59230283      -7.88481498      15.32557324      -0.00009497      -0.00000416       0.00003883
H        8.90850835      -8.88744431      15.92380634       0.00001453       0.00005651      -0.00003580
H        8.18052670     -10.76744924      14.40334750       0.00015176       0.00036982       0.00005056
H        8.64369374      -9.31903032      13.50863451      -0.00010557       0.00031127       0.00010724
H        6.31613072     -11.09789066      17.29467214       0.00024052      -0.00004788      -0.00000940
H        5.64586376     -10.40521705      12.05370866       0.00010754      -0.00027683      -0.00015918
