21
Properties=species:S:1:pos:R:3:forces:R:3 -3140.32736=T energy=-31483.843632247364 free_energy=-31483.843632247364 pbc="F F F"
S        3.71980355     -16.37462666      10.96189320       0.00018160      -0.00004515       0.00002652
O        2.72036710     -16.00013834      10.03199000       0.00004992      -0.00001806       0.00001305
O        4.43669131     -15.19339443      11.62387563      -0.00012675      -0.00051332      -0.00004101
O        3.20393795     -17.30543199      12.06515119       0.00030358       0.00020981      -0.00020759
O        4.94935713     -17.14453084      10.32549378      -0.00046709      -0.00014037       0.00015298
H        3.92246478     -17.57840397      12.77849978       0.00002460       0.00002810       0.00001623
H        4.67973427     -18.00839954       9.96385105       0.00014196       0.00040204       0.00012837
C        5.73193103     -17.10163819      14.10073128      -0.00012620       0.00029903      -0.00022785
C        6.70494903     -17.52001467      15.22331441       0.00000286      -0.00010538       0.00015163
C        7.55207085     -16.36366050      15.72222776       0.00001794       0.00000119      -0.00014880
C        6.71901929     -15.34236659      16.45840385      -0.00008059      -0.00011802      -0.00001884
O        4.85609070     -17.94788905      13.82297780       0.00013935       0.00013437       0.00000004
O        5.93513314     -15.99013785      13.57305324      -0.00004387      -0.00034082       0.00019586
O        5.56360345     -15.48773296      16.78118616       0.00013421       0.00010846       0.00004239
O        7.41937179     -14.23236976      16.75568011      -0.00011134       0.00009841       0.00009109
H        6.10408514     -17.96283616      16.02143837      -0.00001956      -0.00000091      -0.00002776
H        7.32630110     -18.31537681      14.79854163      -0.00001626       0.00002044      -0.00006194
H        8.05753813     -15.86573421      14.88940206      -0.00000948      -0.00002544       0.00002977
H        8.32747201     -16.71661863      16.41312296      -0.00000785       0.00000903       0.00004418
H        5.07121308     -15.46968331      12.37587168      -0.00008735       0.00003556      -0.00011244
H        6.80147805     -13.64629239      17.22318781       0.00010071      -0.00003927      -0.00004623
