21
Properties=species:S:1:pos:R:3:forces:R:3 -3140.39845=T energy=-31483.409339527727 free_energy=-31483.409339527727 pbc="F F F"
S      -19.25998623     -11.97688443      -6.13510595       0.00040419      -0.00034371       0.00012256
O      -18.32190299     -12.78218797      -6.88882844      -0.00048864       0.00050008       0.00029212
O      -20.15593589     -11.07434191      -6.80112159      -0.00014257      -0.00034308       0.00051048
O      -20.05609714     -12.90215137      -5.11835631       0.00030310      -0.00019717       0.00011796
O      -18.43364662     -11.12366194      -5.05897067      -0.00014690      -0.00010470       0.00000092
H      -20.69760494     -13.45840884      -5.63286782       0.00005949      -0.00000663       0.00037879
H      -17.65413931     -11.64035730      -4.78952427       0.00036348       0.00019739      -0.00047432
C      -20.76311127     -15.90426340      -6.09739169       0.00011239      -0.00005394      -0.00027914
C      -19.26292290     -15.81286224      -6.00337250      -0.00003362       0.00017919       0.00004901
C      -18.52412650     -17.11131710      -6.29740866      -0.00002116       0.00010562      -0.00000839
C      -18.75564039     -17.56524748      -7.71932128       0.00012243      -0.00034982      -0.00001717
O      -21.49894861     -14.93707376      -6.17185969       0.00012637       0.00049214      -0.00040592
O      -21.24416176     -17.14709579      -6.04260727      -0.00027430       0.00005436      -0.00042301
O      -19.39435071     -16.95477153      -8.54349079      -0.00062904      -0.00056660       0.00043817
O      -18.15776943     -18.73972803      -7.98815600       0.00045586       0.00021279       0.00006229
H      -18.95167828     -15.01949822      -6.69319754      -0.00045087       0.00021351      -0.00003926
H      -19.03418273     -15.43722445      -4.99671131       0.00000862       0.00008619      -0.00015488
H      -18.84264384     -17.91257813      -5.62284131       0.00016333       0.00041238       0.00031487
H      -17.44694064     -16.97461059      -6.15516933      -0.00006217      -0.00040519      -0.00046623
H      -22.21129770     -17.08284131      -6.12117055      -0.00023322       0.00006878      -0.00029028
H      -18.37577813     -18.94219632      -8.91323725       0.00036329      -0.00015190       0.00027111
