21
Properties=species:S:1:pos:R:3:forces:R:3 -3140.38943=T energy=-31483.45121803665 free_energy=-31483.45121803665 pbc="F F F"
S        1.11078511       8.78568792      31.39134507       0.00064119       0.00048559      -0.00002805
O        1.97206404       7.95226970      30.57891443       0.00002325      -0.00033247      -0.00036371
O       -0.12945739       8.30117584      31.92252623      -0.00043321      -0.00024754       0.00007880
O        2.06608373       9.29875843      32.57410266      -0.00025779       0.00025153       0.00035781
O        0.79276168      10.14343413      30.61810499       0.00000504       0.00019094       0.00007871
H        1.54163126       9.83978247      33.18727518       0.00017706      -0.00017674      -0.00026099
H        1.61311849      10.43401521      30.16679080      -0.00026637      -0.00020400       0.00001654
C        4.54962683       9.80644287      28.74252176       0.00043556      -0.00054875      -0.00037527
C        5.02880513      11.20856782      28.42863454       0.00018996      -0.00031972       0.00000530
C        4.30291994      12.30851164      29.19202613      -0.00010645      -0.00012672      -0.00045270
C        4.41857721      12.11027749      30.68597399      -0.00035834      -0.00012183      -0.00038457
O        5.20202024       8.81395361      28.55251008      -0.00015880       0.00057545       0.00010511
O        3.29457093       9.77733292      29.23089228      -0.00014710       0.00036454       0.00051621
O        5.22926511      11.39346188      31.22529775       0.00009888       0.00022254       0.00036049
O        3.50356678      12.81701788      31.37143549       0.00054240       0.00012231       0.00028782
H        6.10094065      11.22023252      28.63528266       0.00006744      -0.00001682       0.00003703
H        4.90633603      11.34494025      27.34799509      -0.00006801       0.00010009      -0.00017370
H        3.23978863      12.33163213      28.93432901       0.00002221       0.00011507       0.00001629
H        4.72209074      13.28976803      28.94387284      -0.00005129       0.00000027       0.00009834
H        3.08345217       8.85593480      29.50274889      -0.00009846      -0.00030648      -0.00008315
H        3.63190630      12.57773920      32.30481909      -0.00025679      -0.00002677       0.00016337
