21
Properties=species:S:1:pos:R:3:forces:R:3 -3140.53971=T energy=-31483.717301320245 free_energy=-31483.717301320245 pbc="F F F"
S       -6.27012465      11.21445628      20.59660108       0.00016180       0.00030103      -0.00008586
O       -5.90365501      12.31257955      19.75419819       0.00014162      -0.00025558      -0.00016546
O       -7.55944330      10.56402239      20.44839000       0.00039005      -0.00011253      -0.00047415
O       -5.11875059      10.13984074      20.52795080       0.00034529       0.00049271       0.00030030
O       -6.24267906      11.65004029      22.14080301      -0.00031510       0.00018296      -0.00019662
H       -5.38213407       9.34034409      21.05559613      -0.00012874      -0.00011685       0.00075909
H       -5.38593524      12.06567457      22.33231926      -0.00057764      -0.00035566      -0.00004542
C       -5.74405394       6.05635758      23.98599312      -0.00025160      -0.00022039      -0.00033049
C       -6.52849984       5.41254257      22.86624713      -0.00032735      -0.00009775      -0.00044775
C       -7.72666940       6.21884810      22.38594545      -0.00015652      -0.00010747      -0.00013700
C       -7.31945413       7.56682163      21.84362337      -0.00005019      -0.00000739       0.00008357
O       -4.59025133       5.81978595      24.24121328       0.00011958      -0.00043650      -0.00013835
O       -6.49299926       6.90310096      24.72303113       0.00019443       0.00039816       0.00001059
O       -6.14187079       7.90000451      21.75163425       0.00016133       0.00016588       0.00016827
O       -8.33208526       8.31549600      21.48118461      -0.00004494      -0.00007784       0.00025669
H       -5.82197083       5.22752923      22.05402452      -0.00037636      -0.00004869       0.00016262
H       -6.85358524       4.43196000      23.23589902       0.00029841       0.00006113      -0.00012179
H       -8.44558944       6.38186748      23.19536419       0.00022164       0.00002129       0.00039414
H       -8.25615540       5.68491620      21.58947487      -0.00010929       0.00004332      -0.00007284
H       -5.89653936       7.26583918      25.39839898       0.00045029       0.00025941       0.00016976
H       -7.99126419       9.18544443      21.14943514      -0.00014665      -0.00008890      -0.00008933
