21
Properties=species:S:1:pos:R:3:forces:R:3 -3140.39174=T energy=-31483.553727751325 free_energy=-31483.553727751325 pbc="F F F"
S      -22.93028539      -7.48811223     -21.65381081      -0.00022193       0.00027973       0.00007596
O      -22.48369644      -8.20236401     -22.82158669       0.00003433       0.00031173       0.00013161
O      -23.59963038      -6.21860459     -21.75853262       0.00006825      -0.00025558       0.00017601
O      -23.84325988      -8.51891015     -20.84293597      -0.00013632       0.00003010      -0.00019035
O      -21.71978063      -7.26154534     -20.64623754      -0.00035129      -0.00003926       0.00024010
H      -23.92883147      -8.23169567     -19.90186725       0.00010499      -0.00022395      -0.00014481
H      -21.37777256      -8.13139545     -20.32118442       0.00004523      -0.00018229       0.00003447
C      -21.51345857     -10.16243681     -18.48250165       0.00025243      -0.00025934      -0.00031194
C      -22.74770983     -10.91571284     -18.92636139      -0.00046325      -0.00026107       0.00009102
C      -23.83104223     -10.93535009     -17.85046840      -0.00011647       0.00038524       0.00021279
C      -24.26594926      -9.54250978     -17.48186385      -0.00016433       0.00015426       0.00002205
O      -20.87126438      -9.38254340     -19.15716672       0.00010449       0.00009286       0.00008761
O      -21.15461110     -10.45953162     -17.22869292       0.00014025       0.00012290       0.00002670
O      -23.99584434      -8.53844631     -18.11659421      -0.00035567       0.00001809      -0.00012923
O      -25.00011681      -9.49355328     -16.37179324      -0.00003648       0.00026071      -0.00004721
H      -23.10912448     -10.44815512     -19.84608855       0.00028935      -0.00037162      -0.00004152
H      -22.43742534     -11.93993064     -19.16042748       0.00027473      -0.00010087      -0.00013870
H      -23.47543753     -11.43487139     -16.94583269      -0.00007745       0.00005931       0.00012417
H      -24.71297862     -11.47901828     -18.20479782       0.00026038       0.00026318      -0.00004193
H      -20.35928161      -9.93465657     -17.03569014       0.00032704      -0.00027956       0.00003610
H      -25.21308258      -8.55658129     -16.22373653       0.00002222      -0.00000459      -0.00021235
