21
Properties=species:S:1:pos:R:3:forces:R:3 -3140.35363=T energy=-31483.438463218466 free_energy=-31483.438463218466 pbc="F F F"
S        8.33251355      -9.54965760      16.57558627       0.00031989      -0.00011367      -0.00007039
O        7.11260923      -9.28867931      15.86053138      -0.00040042      -0.00002581       0.00014377
O        8.30707685     -10.16218000      17.88691716      -0.00018537       0.00023520      -0.00023592
O        9.25051431     -10.44201555      15.61423313       0.00026086      -0.00008953       0.00021183
O        9.24393863      -8.25595232      16.61741960      -0.00017473       0.00020206       0.00031507
H        9.99244150     -10.78697505      16.14067900      -0.00003583       0.00002995      -0.00016892
H        8.81657167      -7.58942073      17.21560511       0.00015733      -0.00025691      -0.00020011
C        7.15360957      -6.63739509      19.02936479       0.00022162       0.00005277      -0.00007187
C        6.16721443      -7.73808162      18.74168431      -0.00002980       0.00026345      -0.00004801
C        4.79968806      -7.55012111      19.38380523      -0.00007737       0.00012328      -0.00009513
C        4.11076020      -6.31366154      18.85830596      -0.00004852      -0.00004554      -0.00009835
O        8.15118802      -6.41686176      18.36755191      -0.00031427      -0.00000972       0.00027485
O        6.87355327      -5.93117504      20.12615107      -0.00007737      -0.00005953      -0.00025868
O        4.55628180      -5.58221389      18.00600959      -0.00016242       0.00000202      -0.00001337
O        2.91650749      -6.10470423      19.44125596       0.00025618      -0.00027400      -0.00015223
H        6.08605855      -7.82396335      17.65201590       0.00001778      -0.00001114      -0.00012198
H        6.64731338      -8.66671540      19.07829121       0.00000414      -0.00019494       0.00008275
H        4.88134889      -7.46102663      20.47217209       0.00011965      -0.00008148       0.00043885
H        4.15889098      -8.41311945      19.17361921       0.00004991      -0.00013208      -0.00005887
H        7.56227424      -5.25028984      20.21187458       0.00016481       0.00004385       0.00011303
H        2.56613831      -5.29010401      19.04384538      -0.00006651       0.00034225       0.00001415
