21
Properties=species:S:1:pos:R:3:forces:R:3 -3140.34375=T energy=-31483.428210625076 free_energy=-31483.428210625076 pbc="F F F"
S      -13.47604309     -10.58342738     -27.77679044       0.00019421      -0.00007845       0.00017529
O      -12.48522791     -11.49117956     -28.27469657      -0.00000012       0.00031853      -0.00005183
O      -14.85072771     -10.62598660     -28.22915832       0.00011170      -0.00054237       0.00043096
O      -13.43495973     -10.66611751     -26.18379999       0.00020120       0.00005903      -0.00014174
O      -13.02853662      -9.06485499     -28.03825130      -0.00093336      -0.00026755       0.00003734
H      -14.23546905     -10.22638901     -25.82599190      -0.00005791      -0.00008412      -0.00028478
H      -12.09382495      -8.96853896     -27.79103246      -0.00009145       0.00040746       0.00012545
C      -17.53596380      -9.64163136     -25.95180549       0.00006258       0.00003138      -0.00009338
C      -17.88697119      -9.28292442     -24.52450677      -0.00003824       0.00009173      -0.00002360
C      -16.78893737      -8.57103001     -23.74411644       0.00001788      -0.00003159      -0.00007868
C      -16.42921168      -7.23879387     -24.35394422       0.00015986      -0.00004411       0.00013900
O      -18.34656241      -9.74442923     -26.83569383       0.00025653       0.00011755      -0.00022088
O      -16.22821278      -9.90610319     -26.12559481       0.00008214      -0.00011036      -0.00003004
O      -16.98516137      -6.73340085     -25.30010172      -0.00024654       0.00013997       0.00007299
O      -15.40563264      -6.64485761     -23.71298356      -0.00015903       0.00015423       0.00017941
H      -18.80067747      -8.68669010     -24.56873060       0.00006121       0.00012846      -0.00002633
H      -18.14437761     -10.22702196     -24.02832706       0.00010292       0.00002891      -0.00016788
H      -15.88247742      -9.18510805     -23.70535071      -0.00026357      -0.00050809       0.00005514
H      -17.10557950      -8.39781533     -22.71027041       0.00016469       0.00037780      -0.00013942
H      -16.08838886     -10.15837106     -27.06767892      -0.00000962      -0.00007514       0.00001611
H      -15.25113854      -5.80668350     -24.17953223       0.00038491      -0.00011317       0.00002670
