21
Properties=species:S:1:pos:R:3:forces:R:3 -3140.42128=T energy=-31483.473725489846 free_energy=-31483.473725489846 pbc="F F F"
S      -13.10184981     -23.53717784       0.79957081      -0.00009068      -0.00002495       0.00008166
O      -12.98837298     -24.97242937       0.74277553       0.00006914      -0.00016665      -0.00003260
O      -14.18312733     -22.83964326       0.15791216       0.00002539       0.00011146      -0.00001991
O      -13.08804804     -23.18109882       2.37632399      -0.00001535       0.00003573       0.00012696
O      -11.75931587     -22.84388221       0.31139082       0.00001909      -0.00003012      -0.00006887
H      -13.02199251     -22.21684063       2.47761692      -0.00004990      -0.00000038      -0.00003462
H      -11.02381982     -23.09465770       0.92477390       0.00007946       0.00005344      -0.00000442
C       -8.95149458     -26.05951451       2.30778491       0.00011414      -0.00025340      -0.00018115
C      -10.43471603     -25.94751226       2.57720967      -0.00022864       0.00011376      -0.00005788
C      -10.80778556     -25.01044145       3.71622986      -0.00005269      -0.00002199       0.00013244
C      -10.28768694     -23.61536284       3.48971292       0.00019300      -0.00018692       0.00020629
O       -8.46740524     -26.56215319       1.32628562       0.00003034       0.00015103       0.00021923
O       -8.20842943     -25.55473196       3.31356905       0.00031894      -0.00005108      -0.00010121
O      -10.02020817     -23.13519672       2.40170571       0.00008095       0.00028810      -0.00037724
O      -10.13675131     -22.92009120       4.61461652       0.00007282       0.00008307       0.00008011
H      -10.91636854     -25.63871410       1.64244716       0.00004208       0.00005831      -0.00014964
H      -10.79436149     -26.96219508       2.78323116       0.00006684      -0.00002916       0.00008817
H      -10.41755586     -25.36169538       4.67459894       0.00002678       0.00001325       0.00007708
H      -11.89716330     -24.93419027       3.79912547      -0.00020893      -0.00011024       0.00002678
H       -7.28160091     -25.65824353       3.04256605      -0.00037969       0.00003402       0.00002185
H       -9.78491081     -22.05300349       4.35143078      -0.00011257      -0.00006727      -0.00003282
