21
Properties=species:S:1:pos:R:3:forces:R:3 -3140.46184=T energy=-31483.399542289775 free_energy=-31483.399542289775 pbc="F F F"
S      -13.54287905      -6.46890807     -11.70116255      -0.00001023      -0.00021566       0.00024661
O      -13.21553022      -7.77491934     -11.19503321      -0.00006242       0.00013566      -0.00004888
O      -13.18473832      -6.03969079     -13.02673043      -0.00000655       0.00006688      -0.00020361
O      -15.14483976      -6.33487837     -11.53997964       0.00015986      -0.00007748       0.00007558
O      -13.02166151      -5.34554237     -10.70087063      -0.00008921      -0.00000905      -0.00000238
H      -15.44658566      -5.61072794     -12.11539798      -0.00002733       0.00012118      -0.00009397
H      -12.95288530      -5.72380540      -9.78685826       0.00000793      -0.00002246       0.00003053
C       -9.58954161      -6.25803448      -8.77254617      -0.00001962      -0.00000682       0.00002503
C      -10.14834520      -7.13844826      -9.86837008      -0.00004876      -0.00003195      -0.00003457
C      -10.93205997      -8.34437685      -9.37095819      -0.00002074      -0.00008976       0.00008452
C      -12.09163235      -7.93817200      -8.50172126      -0.00012898      -0.00001240       0.00011480
O       -9.19804087      -5.13048151      -8.93412806       0.00001117      -0.00001099      -0.00000443
O       -9.54031905      -6.88560802      -7.57988628       0.00004873      -0.00000083      -0.00000298
O      -12.55033320      -6.81183079      -8.41976882      -0.00002787      -0.00008073      -0.00000614
O      -12.59754581      -8.94657466      -7.79540723       0.00016642       0.00013709      -0.00015861
H      -10.76547483      -6.49406410     -10.50322542       0.00004620       0.00000253       0.00003704
H       -9.29879963      -7.45897334     -10.48102575      -0.00001431       0.00001273       0.00001888
H      -10.29929908      -9.02386887      -8.79325751      -0.00001226       0.00002799      -0.00003834
H      -11.34933942      -8.89402803     -10.22041634       0.00001658       0.00000543       0.00004534
H       -9.19090779      -6.23473679      -6.94938569      -0.00002066       0.00000838      -0.00002720
H      -13.32894592      -8.56974365      -7.27787300       0.00003245       0.00004011      -0.00005695
