21
Properties=species:S:1:pos:R:3:forces:R:3 -3140.34150=T energy=-31483.344342910845 free_energy=-31483.344342910845 pbc="F F F"
S      -11.67275086      -6.48507293     -22.30043326      -0.00070588       0.00010643       0.00026854
O      -11.65116938      -6.17330228     -23.71279011      -0.00028795       0.00000113      -0.00014400
O      -12.90875701      -6.57395687     -21.57324791       0.00059420      -0.00035234       0.00026798
O      -10.78197428      -7.78389021     -22.03867624      -0.00025988       0.00032771      -0.00009129
O      -10.74748774      -5.43415631     -21.52897636      -0.00058975      -0.00040698       0.00046493
H      -11.21725173      -8.54467281     -22.48398738      -0.00011220      -0.00020592      -0.00003628
H      -10.01455921      -5.18405252     -22.11812405       0.00065585       0.00026223      -0.00060061
C      -16.55680256      -9.27285144     -24.25210347      -0.00020299       0.00029712       0.00019103
C      -15.48902204      -8.38106960     -24.84356734       0.00035286       0.00026786      -0.00009620
C      -14.14480938      -8.46052044     -24.13255918       0.00017238      -0.00015270       0.00027972
C      -13.56714041      -9.85073587     -24.16843784       0.00013202      -0.00011849       0.00024655
O      -17.49210545      -9.72744050     -24.86087962       0.00024731      -0.00021757      -0.00028965
O      -16.38565981      -9.46800939     -22.92805808      -0.00002432       0.00021133      -0.00002241
O      -14.04730668     -10.80294453     -24.72942008       0.00006312      -0.00024994      -0.00033385
O      -12.39893053      -9.93270005     -23.48401465       0.00005996       0.00012004      -0.00007290
H      -15.40847079      -8.64390903     -25.90160901      -0.00013704      -0.00022444       0.00006027
H      -15.87500533      -7.35477936     -24.79859794       0.00026636      -0.00039665       0.00024872
H      -14.24156392      -8.15699699     -23.08373801      -0.00010771       0.00012733      -0.00020705
H      -13.41906203      -7.77042865     -24.58221246      -0.00010638      -0.00008228      -0.00008114
H      -17.11479519     -10.04508860     -22.64699247      -0.00002658       0.00052997       0.00012910
H      -12.11284102     -10.86161101     -23.55416046       0.00001669       0.00015626      -0.00018174
