21
Properties=species:S:1:pos:R:3:forces:R:3 -3140.35751=T energy=-31483.51008985926 free_energy=-31483.51008985926 pbc="F F F"
S      -10.93838941     -26.68124069       7.85880820       0.00033226      -0.00032954      -0.00007954
O      -10.18853688     -27.63544129       7.08067181      -0.00013888       0.00017595       0.00013649
O      -11.54764858     -25.55748953       7.18581007      -0.00019830       0.00021136      -0.00017317
O      -12.04311665     -27.45009908       8.73268672       0.00022322       0.00014788       0.00026184
O      -10.12423780     -26.18968657       9.11952039       0.00005922      -0.00020371       0.00016791
H      -12.69418618     -27.86113374       8.13599733      -0.00019583      -0.00011766      -0.00022592
H       -9.56084507     -25.41633256       8.85725470      -0.00005318       0.00012691      -0.00014068
C      -10.63171619     -22.47930585      10.49032493       0.00015966      -0.00001040       0.00040125
C      -11.58877588     -23.13540823       9.51990795      -0.00011528       0.00010288       0.00019264
C      -11.38327047     -22.74063896       8.06450546       0.00007488       0.00019139       0.00011468
C       -9.99295025     -23.05959247       7.58457091       0.00022006      -0.00013804      -0.00002372
O      -10.42081496     -22.86727763      11.61100827      -0.00013148       0.00015648      -0.00057009
O      -10.05631282     -21.37157334       9.97976691      -0.00020882      -0.00049984      -0.00016475
O       -9.18922432     -23.76654372       8.16800680      -0.00027236       0.00041710      -0.00032782
O       -9.69452712     -22.48028585       6.42348717      -0.00006700      -0.00029218       0.00034106
H      -11.48993179     -24.21547268       9.66137173      -0.00004437       0.00007919       0.00001727
H      -12.59984783     -22.86880141       9.84759656       0.00020897       0.00004233      -0.00003522
H      -11.55444809     -21.67121566       7.91183366       0.00009488      -0.00013485       0.00004871
H      -12.07447085     -23.30136908       7.42787309      -0.00007764      -0.00012220      -0.00021768
H       -9.45402166     -21.04245755      10.66700661       0.00010285       0.00018458       0.00025893
H       -8.78551821     -22.75376029       6.21435355       0.00002673       0.00001262       0.00001802
