21
Properties=species:S:1:pos:R:3:forces:R:3 -3140.32441=T energy=-31483.57764303542 free_energy=-31483.57764303542 pbc="F F F"
S      -11.12020489      -3.13297147     -15.52360183       0.00003444       0.00019290      -0.00014143
O       -9.69618775      -3.12178782     -15.83954907      -0.00015569      -0.00001937       0.00012258
O      -11.93628082      -2.02033606     -15.90338106       0.00007045      -0.00006318      -0.00002134
O      -11.73239663      -4.50908675     -16.00556318       0.00002607      -0.00002450      -0.00008314
O      -11.27375370      -3.35021674     -13.95406806       0.00002143       0.00007781      -0.00000370
H      -11.73829617      -4.53389690     -16.99055388      -0.00000493      -0.00000898       0.00014874
H      -10.87004456      -4.20079270     -13.70877050       0.00001241      -0.00016600       0.00004609
C       -9.36090663      -3.77329034     -19.12692873      -0.00014611       0.00027920       0.00014359
C       -9.56158796      -4.66463000     -20.33732114       0.00010633       0.00026679      -0.00004220
C      -10.05409918      -6.07660847     -20.03663052       0.00003773       0.00013959       0.00003779
C      -11.37301895      -6.11709441     -19.30554372       0.00013876      -0.00014755      -0.00011766
O       -9.38544277      -2.56840143     -19.20355125       0.00003561      -0.00035188      -0.00008559
O       -9.12870771      -4.45897852     -18.01115372       0.00004368       0.00006247       0.00012130
O      -11.89055320      -5.17977891     -18.72775047      -0.00009730       0.00005380       0.00007929
O      -11.93429343      -7.32891826     -19.32939848      -0.00002863      -0.00007725       0.00000286
H      -10.23795868      -4.12704224     -21.00936304      -0.00002540       0.00003148      -0.00003022
H       -8.59150336      -4.71099026     -20.84778581       0.00002615      -0.00005228       0.00000324
H       -9.32851654      -6.59653773     -19.39930934      -0.00000029      -0.00008009       0.00011639
H      -10.15283264      -6.65790633     -20.95686406      -0.00007484      -0.00006623      -0.00004217
H       -9.21321696      -3.85294492     -17.23188843       0.00000282      -0.00009251      -0.00027139
H      -12.75530315      -7.26140942     -18.81224237      -0.00002298       0.00004533       0.00001737
