21
Properties=species:S:1:pos:R:3:forces:R:3 -3140.34936=T energy=-31483.24268389583 free_energy=-31483.24268389583 pbc="F F F"
S        0.48681819      -0.37365195      -4.03045538      -0.00003184       0.00008136      -0.00010557
O        0.09910227      -1.74202826      -4.28446927      -0.00000164       0.00004935       0.00003850
O        0.20549491       0.26814380      -2.77837389      -0.00000326      -0.00005031       0.00002116
O        2.05352141      -0.22472619      -4.38518114       0.00005198       0.00001343      -0.00001493
O       -0.05495035       0.57880697      -5.19299426      -0.00002584      -0.00000112       0.00010201
H        2.55004706      -0.85377007      -3.83327548       0.00002819      -0.00003701       0.00002931
H        0.16405910       0.18103656      -6.05222103       0.00002169      -0.00005856      -0.00007294
C       -4.28689951       0.94319135      -3.53430157       0.00005066      -0.00004117      -0.00000576
C       -3.02319171       0.15929677      -3.78682238      -0.00000501      -0.00001812      -0.00000170
C       -3.20474941      -1.34952879      -3.72576105       0.00001780      -0.00001812       0.00006853
C       -4.24065089      -1.83094300      -4.71149032       0.00003147      -0.00007749       0.00013590
O       -4.52503890       2.03572947      -3.98028284      -0.00000594       0.00004932      -0.00002189
O       -5.11808017       0.30258021      -2.68730125      -0.00004172      -0.00001252       0.00005019
O       -4.83640190      -1.12642805      -5.49104925      -0.00007018       0.00004678      -0.00014034
O       -4.43889805      -3.15733250      -4.63284563       0.00001782      -0.00000989      -0.00002378
H       -2.62346999       0.48002092      -4.75309623      -0.00002558       0.00001454       0.00005434
H       -2.29423233       0.47710225      -3.02923032       0.00002341       0.00003073      -0.00001901
H       -3.52137762      -1.66344580      -2.72472232       0.00005442       0.00000118      -0.00009149
H       -2.25563471      -1.85760518      -3.94031413      -0.00007804       0.00004163       0.00002098
H       -5.89552590       0.87721990      -2.59177633       0.00000948      -0.00000472      -0.00001703
H       -5.12416041      -3.36400462      -5.29006532      -0.00001782       0.00000042      -0.00000630
