21
Properties=species:S:1:pos:R:3:forces:R:3 -3140.37077=T energy=-31483.32826192997 free_energy=-31483.32826192997 pbc="F F F"
S       -5.54370415      16.94356209      21.59570918      -0.00021008      -0.00080805      -0.00010504
O       -4.26759029      16.38280243      21.24540379      -0.00028229      -0.00028217       0.00009102
O       -5.67944602      18.19982890      22.28455154       0.00001258       0.00022745       0.00051445
O       -6.36433317      17.01651533      20.20591052       0.00013120      -0.00055513       0.00006789
O       -6.41725795      15.87673879      22.39634272       0.00008368      -0.00013999       0.00000349
H       -7.24039528      17.39557820      20.39071681      -0.00011270       0.00032285       0.00023467
H       -6.40508867      15.00489775      21.91535827      -0.00026787      -0.00028891      -0.00002292
C       -6.36753771      10.48848268      21.67471524       0.00003673       0.00000502       0.00004312
C       -7.85841375      10.69444928      21.81221266       0.00002980      -0.00000978      -0.00002962
C       -8.26682799      11.62180382      22.95076483       0.00007781       0.00006783      -0.00006247
C       -7.69495219      13.00261508      22.78522435      -0.00007617       0.00003386      -0.00036722
O       -5.80677643      10.17748353      20.65452708       0.00002916       0.00030529       0.00008069
O       -5.71508486      10.63879541      22.84667012       0.00017585      -0.00002155      -0.00008845
O       -7.00875661      13.33638933      21.83105326      -0.00037180       0.00014312      -0.00039118
O       -8.02012761      13.82359369      23.77812242       0.00015432       0.00025826      -0.00032902
H       -8.21419640      11.06422626      20.84772506      -0.00003977      -0.00000667       0.00013219
H       -8.30085346       9.70077615      21.95604484       0.00020943       0.00029342       0.00017370
H       -7.92891772      11.22959812      23.91595955       0.00022580       0.00006964       0.00003308
H       -9.35723087      11.71175920      23.00296258      -0.00006945       0.00021053       0.00001803
H       -4.77526782      10.49512783      22.64729308       0.00006867      -0.00004106       0.00017837
H       -7.60465336      14.69451585      23.60378969       0.00019460       0.00021571      -0.00017465
