21
Properties=species:S:1:pos:R:3:forces:R:3 -3140.29312=T energy=-31483.400395016844 free_energy=-31483.400395016844 pbc="F F F"
S       -4.83779829       9.33009433      20.40545149      -0.00025780       0.00029725       0.00016696
O       -3.88964320       9.00707246      19.37389801      -0.00017810       0.00059843      -0.00025105
O       -5.67404728      10.49879439      20.34781595      -0.00019026       0.00009573       0.00043643
O       -5.76455304       8.02331710      20.56882717       0.00001841       0.00003248      -0.00020888
O       -4.10708183       9.37505384      21.82821695       0.00001377      -0.00009017      -0.00006837
H       -6.47794304       8.23552197      21.19837467      -0.00001307      -0.00029350       0.00006545
H       -3.57032213       8.55197502      21.92977762      -0.00001913      -0.00001783      -0.00027486
C       -3.19166541       3.97692916      22.70426720      -0.00005883       0.00001163       0.00001972
C       -4.45614931       4.28182905      21.93476815      -0.00009513      -0.00014168       0.00000370
C       -5.42169208       5.20998180      22.66282498       0.00004137       0.00005674       0.00008798
C       -4.79512996       6.54718446      22.94403626       0.00008368      -0.00000310      -0.00019199
O       -2.12291387       3.72635032      22.20784830       0.00054134       0.00055637       0.00013544
O       -3.39748948       3.95638872      24.03820899      -0.00047648      -0.00061548       0.00049162
O       -3.64145846       6.82701526      22.66672015       0.00024046      -0.00002781      -0.00021797
O       -5.64661357       7.41605709      23.49535318       0.00026309       0.00022352      -0.00019258
H       -4.14736793       4.70520531      20.97466927       0.00001266      -0.00026295      -0.00008076
H       -4.94067437       3.32078086      21.72260244      -0.00005592      -0.00021474       0.00021832
H       -5.75095530       4.77547192      23.61200748       0.00014849       0.00015920       0.00013593
H       -6.31358041       5.39423619      22.05295001       0.00008984       0.00006702      -0.00015187
H       -2.53402930       3.75735710      24.43637432      -0.00034708      -0.00050977       0.00022863
H       -5.20206795       8.28546166      23.51779427       0.00023850       0.00007898      -0.00035159
