21
Properties=species:S:1:pos:R:3:forces:R:3 -3140.45935=T energy=-31483.40846774304 free_energy=-31483.40846774304 pbc="F F F"
S      -12.96163279     -25.88538558       7.80977041       0.00006091      -0.00021845       0.00001445
O      -12.56359165     -26.45613614       9.06847635      -0.00053567       0.00041968       0.00006342
O      -13.38152178     -26.69429402       6.69754717       0.00014734       0.00001451       0.00016260
O      -14.12491499     -24.83424452       8.19025728       0.00005566       0.00006080      -0.00019392
O      -11.83222312     -24.90991536       7.25046223      -0.00002042       0.00024545      -0.00013683
H      -14.38706643     -24.35371125       7.38621453      -0.00061376      -0.00013991      -0.00073411
H      -11.58973916     -24.27399660       7.96968310      -0.00018589      -0.00004468       0.00007463
C       -8.53856792     -24.38348169       9.58807049       0.00005673      -0.00011236       0.00015246
C       -9.45428902     -25.57301877       9.76958287       0.00016403       0.00004244       0.00003612
C      -10.48639037     -25.41695905      10.87767544       0.00002044      -0.00011731       0.00004995
C      -11.38844137     -24.23475054      10.63958865       0.00002909      -0.00004578       0.00024170
O       -7.90066382     -24.15859393       8.59128257       0.00037442      -0.00014348       0.00003796
O       -8.47534629     -23.60613795      10.68797198       0.00002390       0.00042023      -0.00019562
O      -11.42424034     -23.57724687       9.61253812       0.00007011      -0.00003725       0.00018927
O      -12.17342729     -23.94952479      11.67531394       0.00032389      -0.00025800       0.00000179
H       -9.93616258     -25.74851542       8.80271152      -0.00000212       0.00005320      -0.00005340
H       -8.81259843     -26.43975304       9.96425214       0.00001897      -0.00004062      -0.00011159
H      -10.00978568     -25.28749329      11.85402663       0.00017568      -0.00009276       0.00026087
H      -11.12701211     -26.30344368      10.91592313       0.00005142      -0.00012849       0.00008038
H       -7.88285695     -22.87050330      10.46148625      -0.00026212      -0.00002592      -0.00005846
H      -12.71661529     -23.19176322      11.39795015       0.00004742       0.00014924       0.00011821
