21
Properties=species:S:1:pos:R:3:forces:R:3 -3140.30488=T energy=-31483.184279998582 free_energy=-31483.184279998582 pbc="F F F"
S      -11.20484739      -2.24792781      -7.31074509      -0.00020417      -0.00000857      -0.00033233
O       -9.79706578      -2.18426018      -7.59524003      -0.00003910      -0.00008199      -0.00002257
O      -12.22306599      -2.30037179      -8.32490657       0.00018907       0.00011732       0.00015444
O      -11.40086457      -3.50629404      -6.32229894       0.00011976      -0.00022238       0.00015429
O      -11.60752200      -1.03005976      -6.33974100       0.00009577       0.00008178       0.00015637
H      -12.33189033      -3.78136445      -6.36945197       0.00003361       0.00004813      -0.00003576
H      -10.95651762      -0.98679843      -5.61879822      -0.00016616       0.00005724      -0.00007934
C       -9.00054696       1.13101635     -10.54422822      -0.00008987       0.00001142       0.00004187
C      -10.00873723       0.11174958     -10.07176761      -0.00011921      -0.00004613       0.00023258
C      -11.35056025       0.70118224      -9.66631854       0.00007725      -0.00001246       0.00007546
C      -12.00720676       1.43324065     -10.80916045       0.00005710      -0.00044870       0.00057006
O       -8.10770901       0.90886839     -11.32125048       0.00011339      -0.00010743      -0.00011513
O       -9.17148506       2.32925343      -9.94983697      -0.00004721       0.00008798       0.00007546
O      -11.58316893       1.47748001     -11.93924373       0.00038214       0.00004719      -0.00087715
O      -13.14400420       2.04329664     -10.43462834      -0.00040126       0.00051221       0.00012255
H      -10.11941330      -0.61836230     -10.87821970      -0.00003680      -0.00007118      -0.00007358
H       -9.55392698      -0.41821032      -9.22352788      -0.00005466       0.00008852      -0.00007291
H      -11.23421143       1.40661622      -8.83533838       0.00002678      -0.00003587      -0.00005272
H      -12.02740306      -0.09267308      -9.32700287      -0.00001410       0.00012688      -0.00014639
H       -8.48202262       2.90885078     -10.31386484      -0.00000073       0.00009348       0.00003013
H      -13.48150488       2.48893305     -11.22931585       0.00007862      -0.00023749       0.00019464
