21
Properties=species:S:1:pos:R:3:forces:R:3 -3140.24175=T energy=-31483.34601633196 free_energy=-31483.34601633196 pbc="F F F"
S      -12.21069856      -8.53558638     -22.98657036       0.00037740       0.00025805      -0.00000399
O      -11.01525636      -9.34371238     -23.06130147      -0.00059652       0.00036740       0.00004546
O      -12.33740196      -7.31463543     -23.73050079       0.00008428      -0.00057626       0.00036371
O      -13.47838774      -9.46555925     -23.23350205       0.00006798      -0.00003713      -0.00013149
O      -12.48770215      -8.17631660     -21.44808434       0.00026464      -0.00028758      -0.00003192
H      -13.44093191      -9.85975839     -24.15387631      -0.00004996       0.00000623       0.00007245
H      -12.18177557      -8.92283902     -20.90346821      -0.00016466       0.00028025      -0.00031974
C      -15.23044189     -11.26927154     -25.01402650      -0.00002235      -0.00000027       0.00011592
C      -16.07620564     -12.18201931     -25.86067397      -0.00012505      -0.00000763      -0.00009930
C      -17.57815700     -11.96075619     -25.70106829      -0.00005484      -0.00013643       0.00000106
C      -17.97873444     -10.56311993     -26.10147404      -0.00007054      -0.00010967       0.00011003
O      -14.15562824     -10.81654680     -25.36997047       0.00017007       0.00006259       0.00002371
O      -15.75829603     -11.06047468     -23.80749831       0.00005364      -0.00000927      -0.00004214
O      -17.21467799      -9.70870975     -26.48543300      -0.00003060       0.00008723      -0.00005877
O      -19.30316641     -10.35456497     -25.99274302       0.00012970      -0.00008875      -0.00007585
H      -15.75455692     -12.05393179     -26.89662169      -0.00005987      -0.00000951      -0.00000290
H      -15.81840242     -13.20694283     -25.56529219       0.00001668       0.00001286       0.00000186
H      -17.87778642     -12.11737033     -24.65879409       0.00000328       0.00001646       0.00003927
H      -18.14140218     -12.67236665     -26.31347142       0.00007508      -0.00000799      -0.00000313
H      -15.15764752     -10.48813438     -23.28736314      -0.00003069      -0.00000075      -0.00001090
H      -19.45164677      -9.43347946     -26.26466598      -0.00003781       0.00018105       0.00000641
