21
Properties=species:S:1:pos:R:3:forces:R:3 -3140.32538=T energy=-31483.463203251424 free_energy=-31483.463203251424 pbc="F F F"
S        3.31184635      -2.85569730      23.05996195      -0.00006566       0.00006318      -0.00002086
O        4.45216152      -3.72049273      22.85416625       0.00031090      -0.00024509       0.00002828
O        2.15770518      -2.89075227      22.21226835      -0.00008368       0.00006962       0.00008768
O        2.79025877      -3.11124204      24.56992323       0.00016528      -0.00006920       0.00023124
O        3.79315612      -1.34337435      23.14547374       0.00007690       0.00011681       0.00013754
H        3.54258903      -3.42510854      25.10162107      -0.00024042       0.00013298      -0.00026339
H        4.40397057      -1.24528615      23.92169544      -0.00010311      -0.00002547      -0.00024030
C        3.75434297      -0.61221393      26.28467338       0.00006832      -0.00014086       0.00000316
C        2.45906772      -0.13741339      25.68566685      -0.00001478       0.00001293      -0.00014508
C        1.66239107       0.80390283      26.57999077       0.00005633       0.00007677      -0.00002640
C        2.41885031       2.08108191      26.84976710       0.00027227       0.00018477      -0.00007898
O        4.72861913      -0.97610163      25.64768031      -0.00023172       0.00006323       0.00008165
O        3.74073803      -0.66624208      27.61789259       0.00018734      -0.00001326      -0.00009215
O        3.49989247       2.35564409      26.38447269      -0.00044815      -0.00019660       0.00020901
O        1.75180394       2.91025276      27.67216514       0.00023186      -0.00008914      -0.00014889
H        2.68993509       0.33016875      24.72312742       0.00000379      -0.00005099       0.00009622
H        1.88850061      -1.04566121      25.45877379       0.00014632       0.00012386       0.00009848
H        1.42940208       0.33075608      27.53941123       0.00009314       0.00004959      -0.00000976
H        0.71191365       1.06455425      26.10311968      -0.00011960       0.00002365       0.00003748
H        4.61194800      -0.99865046      27.89365768      -0.00019700       0.00004520       0.00001179
H        2.32109480       3.68987906      27.78378760      -0.00010860      -0.00013182       0.00000322
