21
Properties=species:S:1:pos:R:3:forces:R:3 -3140.34488=T energy=-31483.577644657344 free_energy=-31483.577644657344 pbc="F F F"
S      -15.30050175      -4.21264694       0.18266699       0.00002330      -0.00000463      -0.00010751
O      -15.06673124      -5.50485018      -0.45239944      -0.00003499      -0.00011289      -0.00001562
O      -16.59482584      -3.60800131       0.09725556       0.00002164      -0.00001532       0.00009245
O      -14.77530748      -4.28123714       1.67271459      -0.00001872       0.00005296       0.00006652
O      -14.23090246      -3.18246175      -0.39081633       0.00020669       0.00000155       0.00005922
H      -15.35988030      -4.87796065       2.19524361      -0.00003274      -0.00007747       0.00002542
H      -13.33613968      -3.50126211      -0.18008027      -0.00017798       0.00008123      -0.00010113
C      -16.49366189      -7.87481109       1.46892129      -0.00002346       0.00010473      -0.00003644
C      -16.64141038      -8.61523668       2.78411748      -0.00007323      -0.00004911       0.00001860
C      -15.57583331      -8.30881696       3.83165540       0.00008643      -0.00007033       0.00002706
C      -15.50291492      -6.85185326       4.21587257       0.00012266      -0.00013494       0.00002781
O      -17.42902042      -7.68255317       0.72975370       0.00024978      -0.00004966       0.00004752
O      -15.24072054      -7.50366060       1.22106708      -0.00017285       0.00002122      -0.00013310
O      -15.99373363      -5.93022547       3.59141697      -0.00004174       0.00013064      -0.00006798
O      -14.80282129      -6.65242397       5.33579270      -0.00001138      -0.00001305       0.00003421
H      -17.65095194      -8.40082981       3.14878660       0.00007062      -0.00000488      -0.00002918
H      -16.62264844      -9.68420302       2.53763480      -0.00001760       0.00006178      -0.00005670
H      -14.58536381      -8.57922473       3.44585027      -0.00021320       0.00011364       0.00006389
H      -15.74222141      -8.89583494       4.73841565       0.00007245       0.00003968       0.00001144
H      -15.23429947      -6.85566031       0.47158857      -0.00001235      -0.00004352       0.00013853
H      -14.78736030      -5.69098905       5.48232335      -0.00002301      -0.00003153      -0.00006484
