21
Properties=species:S:1:pos:R:3:forces:R:3 -3140.31517=T energy=-31483.31120657766 free_energy=-31483.31120657766 pbc="F F F"
S       -5.17099994      10.21849620      20.95565378      -0.00040227      -0.00008462       0.00012084
O       -3.82149371       9.77260663      21.22163010       0.00010657       0.00003241      -0.00005853
O       -5.99013835       9.64793512      19.93025395       0.00034338       0.00036107       0.00020039
O       -5.91664651      10.12797068      22.37404357      -0.00005714       0.00015464      -0.00029302
O       -5.14696277      11.80051372      20.71097222       0.00003456      -0.00019041       0.00041488
H       -6.87655859      10.12577588      22.22157497       0.00004802      -0.00005776       0.00008989
H       -4.70537615      12.22966803      21.46403828      -0.00008576      -0.00019220      -0.00046950
C       -1.98011101       6.78909511      21.41492985      -0.00000433       0.00018716      -0.00001109
C       -1.32804714       5.64930957      22.17365441       0.00010979      -0.00008011      -0.00005460
C       -2.14140544       5.09533274      23.33651012      -0.00008905      -0.00009170      -0.00002861
C       -3.42200265       4.44537197      22.87455811      -0.00000954       0.00011909       0.00009334
O       -1.74317926       7.01367335      20.25147763      -0.00004957      -0.00000114       0.00007552
O       -2.77259661       7.53217300      22.18231562       0.00008786      -0.00008994      -0.00018930
O       -3.75057681       4.29668844      21.72135118       0.00002142      -0.00002176      -0.00003735
O       -4.17800356       4.01972622      23.90325116       0.00005512       0.00001819      -0.00000179
H       -1.09564916       4.87389970      21.44035219      -0.00003170       0.00010717       0.00016381
H       -0.36948078       6.03830462      22.54125083      -0.00015439      -0.00002857      -0.00007221
H       -2.39382648       5.89168591      24.04499421      -0.00000370      -0.00002289      -0.00001306
H       -1.56121000       4.34437907      23.88338492       0.00007524      -0.00003134       0.00003327
H       -3.14525425       8.27515828      21.65910726       0.00003044      -0.00006555       0.00006954
H       -4.97026747       3.62307422      23.50453223      -0.00002461      -0.00002174      -0.00003216
