21
Properties=species:S:1:pos:R:3:forces:R:3 -3140.34119=T energy=-31483.425139915573 free_energy=-31483.425139915573 pbc="F F F"
S       -0.03119982      18.84091422      26.61322965      -0.00071833      -0.00006131      -0.00012755
O        0.61479088      18.07482108      27.63747626      -0.00012791      -0.00022924       0.00008678
O        0.58694653      19.07625084      25.32536226       0.00016082       0.00002331       0.00004911
O       -1.48402666      18.21402343      26.40095593       0.00042623       0.00036760       0.00016887
O       -0.38303170      20.31113591      27.15030719       0.00037961      -0.00054884      -0.00033415
H       -1.86696997      18.58111213      25.57645428       0.00012546       0.00037591      -0.00007766
H       -0.73858941      20.23635492      28.05136086      -0.00033955       0.00013783      -0.00045447
C       -1.40920929      19.27532352      22.28681309       0.00009746      -0.00006624       0.00018657
C       -2.80172328      19.22711158      21.69628881       0.00010681       0.00012642       0.00006771
C       -3.88214814      19.92231528      22.51652471      -0.00004756       0.00029182       0.00019836
C       -3.63243764      21.40363343      22.65166622       0.00013268       0.00009656       0.00019209
O       -0.40171039      19.28905614      21.62717922      -0.00007833      -0.00016590      -0.00009772
O       -1.40415779      19.22470621      23.63014370       0.00011849      -0.00006169      -0.00016284
O       -2.71371302      22.00395752      22.14641939      -0.00030538       0.00002688       0.00060469
O       -4.56935155      22.01268368      23.40193288       0.00000083       0.00009853      -0.00014198
H       -2.72872380      19.64478344      20.68993557      -0.00009639      -0.00010355      -0.00007543
H       -3.04920615      18.16378492      21.58465213       0.00024435      -0.00012046      -0.00007834
H       -3.93893807      19.49123077      23.52227949       0.00017259       0.00019415       0.00013576
H       -4.86340218      19.78322623      22.05100443      -0.00001667      -0.00023182      -0.00003931
H       -0.46699670      19.25117126      23.93351524       0.00001266      -0.00002643       0.00015154
H       -4.31916620      22.95121239      23.42937496      -0.00024791      -0.00012345      -0.00025205
