21
Properties=species:S:1:pos:R:3:forces:R:3 -3140.28650=T energy=-31483.3248510217 free_energy=-31483.3248510217 pbc="F F F"
S        3.75643532      -5.74540908      21.72976585       0.00005255       0.00017903      -0.00019674
O        3.60665485      -7.17182857      21.59373589       0.00001305       0.00001407       0.00001757
O        4.52008220      -5.00448245      20.75635119      -0.00020713      -0.00012171       0.00022870
O        2.32943602      -5.04435691      21.94608066      -0.00002235      -0.00000607      -0.00026760
O        4.22765989      -5.38340445      23.21982242      -0.00014222       0.00007118       0.00002474
H        1.83407146      -5.03980859      21.10784239       0.00011681       0.00001389       0.00018045
H        5.04816436      -5.86294063      23.43291166       0.00017022      -0.00005598       0.00004113
C        5.74770442      -1.29504790      23.48685446      -0.00000264      -0.00008872       0.00007314
C        4.80450425      -2.16984231      22.69621224      -0.00004697       0.00005925       0.00001884
C        3.37060046      -2.16731362      23.20397909      -0.00004017      -0.00002445       0.00004190
C        2.77706877      -0.78088857      23.18964181       0.00005740      -0.00012898       0.00024793
O        6.74329308      -0.78187392      23.04490766       0.00008153       0.00001850      -0.00021180
O        5.38476015      -1.19346713      24.78121651      -0.00002372       0.00009489       0.00011742
O        3.31806299       0.20019947      22.73826567       0.00011933       0.00016060       0.00001113
O        1.55117511      -0.74810059      23.73798417      -0.00005245      -0.00012517      -0.00016570
H        4.86553371      -1.83961829      21.65552726      -0.00002339       0.00003850      -0.00014302
H        5.21485132      -3.18450163      22.73572668       0.00008032      -0.00012767       0.00003037
H        3.31395806      -2.54884289      24.22889366      -0.00001968       0.00002063      -0.00006404
H        2.73660732      -2.81353714      22.58696983       0.00001661       0.00005256       0.00006677
H        6.04658366      -0.61915201      25.20086705      -0.00002471      -0.00006110      -0.00001770
H        1.26226616       0.17839886      23.69039461      -0.00010191       0.00001717      -0.00003355
