21
Properties=species:S:1:pos:R:3:forces:R:3 -3140.18928=T energy=-31483.185329384058 free_energy=-31483.185329384058 pbc="F F F"
S       -4.39497179     -20.94827847      11.13955252      -0.00011118       0.00019486      -0.00051180
O       -5.42868558     -20.79246646      10.15661530       0.00005293      -0.00009120       0.00026381
O       -4.40277397     -20.30140718      12.42455148       0.00001568       0.00024000       0.00030637
O       -4.21729477     -22.53318958      11.37083961      -0.00008471      -0.00033730      -0.00060284
O       -2.96978815     -20.58344511      10.46966265      -0.00003938      -0.00004227      -0.00014576
H       -3.80232917     -22.66725669      12.24020308       0.00022139       0.00004791       0.00060716
H       -2.96307209     -20.91699197       9.55596060      -0.00017012       0.00011463       0.00042844
C       -2.55343529     -16.29622796       9.67787094      -0.00008505       0.00004092       0.00007148
C       -3.29417362     -17.28886575      10.54292601       0.00000048       0.00023127      -0.00010943
C       -2.64814437     -17.54685789      11.89566222       0.00002390      -0.00006923       0.00002754
C       -2.52357031     -16.28153845      12.70509559      -0.00010027      -0.00002837      -0.00000298
O       -3.06256325     -15.60444477       8.83383911       0.00010076       0.00019920       0.00010745
O       -1.22574179     -16.30605811       9.91306539       0.00026643      -0.00011897      -0.00014246
O       -2.96281269     -15.20439081      12.37943880      -0.00067148      -0.00015241       0.00036118
O       -1.86289247     -16.47878658      13.85816660       0.00008160      -0.00016952      -0.00013852
H       -4.31583435     -16.91268909      10.64924646       0.00010397      -0.00003925      -0.00015843
H       -3.35282503     -18.22343967       9.97136340       0.00000881      -0.00004809      -0.00001967
H       -1.64666396     -17.97477506      11.77831421      -0.00002669       0.00014507      -0.00002181
H       -3.24237170     -18.26676168      12.47058876       0.00016300       0.00006233      -0.00010411
H       -0.84302872     -15.64223885       9.31573475       0.00020153      -0.00013439      -0.00030654
H       -1.82796754     -15.61248651      14.29675541       0.00004877      -0.00004530       0.00009143
