21
Properties=species:S:1:pos:R:3:forces:R:3 -3140.50666=T energy=-31483.836266274986 free_energy=-31483.836266274986 pbc="F F F"
S        1.49207562       1.25388329      25.98055016      -0.00022280       0.00066000      -0.00015557
O        0.23007513       1.85510594      26.44597176       0.00018802      -0.00032473      -0.00013402
O        2.02141901       0.13527909      26.69717353      -0.00003225      -0.00034580       0.00017126
O        1.16183333       0.91176169      24.48124453       0.00017291      -0.00012788       0.00001371
O        2.53180535       2.40407563      25.80689074       0.00004548      -0.00006589      -0.00007194
H        1.92475622       0.49182688      24.04046564      -0.00017422       0.00010480       0.00007561
H        2.65854046       2.88395251      26.67762086      -0.00002783       0.00010603       0.00006804
C        2.87551383       6.47611664      29.13794159       0.00010485      -0.00010803       0.00014462
C        2.40503265       5.54349637      30.22980692       0.00005150      -0.00003815      -0.00003910
C        1.13303834       4.77376423      29.90535170      -0.00008786       0.00004035       0.00002503
C        1.29803133       3.87214671      28.70004382      -0.00004172      -0.00007176      -0.00009894
O        4.00784531       6.86846395      29.01047928       0.00006373       0.00002091      -0.00001088
O        1.87136706       6.87824293      28.33125710      -0.00022650      -0.00003278      -0.00000373
O        2.39369372       3.77582046      28.13958977      -0.00013450       0.00001829       0.00004175
O        0.21781132       3.24740600      28.36621175       0.00016105       0.00007364       0.00009972
H        3.23537765       4.86739221      30.44552565      -0.00002135       0.00002544      -0.00002888
H        2.25659081       6.16146446      31.12436350      -0.00001481       0.00002432       0.00003463
H        0.29791775       5.45321604      29.70668422       0.00009815      -0.00003875       0.00002025
H        0.83897172       4.14351522      30.75145889      -0.00001590       0.00005496      -0.00002223
H        2.27986885       7.45783763      27.66746331       0.00006341       0.00006781      -0.00010324
H        0.33503268       2.61086012      27.49866922       0.00005056      -0.00004258      -0.00002588
