21
Properties=species:S:1:pos:R:3:forces:R:3 -3140.35695=T energy=-31483.41327472325 free_energy=-31483.41327472325 pbc="F F F"
S      -18.03656442     -21.12276093      -5.23804439      -0.00005686       0.00039583      -0.00011886
O      -18.36510928     -21.40688334      -6.60878847       0.00011498       0.00052220       0.00048327
O      -18.40303326     -19.89447781      -4.58929992       0.00015766      -0.00018609       0.00019169
O      -18.56851017     -22.37149047      -4.38699329      -0.00013670      -0.00026500      -0.00031060
O      -16.44980569     -21.27060560      -5.03275209       0.00018305       0.00003955       0.00033019
H      -18.20423629     -22.31037649      -3.46887296      -0.00016341      -0.00039151      -0.00008387
H      -16.13836002     -22.03230821      -5.55294652       0.00024183       0.00009783       0.00055934
C      -15.39678211     -23.85062880      -0.05307584      -0.00007309      -0.00029980      -0.00034570
C      -14.44805532     -23.46174543      -1.16309412      -0.00013614      -0.00005364      -0.00040317
C      -14.75008376     -24.12526393      -2.50230917       0.00012437       0.00022113      -0.00027335
C      -16.12292806     -23.77524897      -3.00425403      -0.00032282      -0.00006813      -0.00006700
O      -15.70938082     -23.14352689       0.87087188      -0.00024867       0.00082620       0.00003818
O      -15.82669984     -25.12504158      -0.17151798       0.00026742       0.00001764      -0.00028324
O      -16.91270394     -23.08505631      -2.38164839      -0.00008712      -0.00049671      -0.00011856
O      -16.38187497     -24.28772109      -4.20851903       0.00022322       0.00001889       0.00032771
H      -14.48031801     -22.37222868      -1.23843656      -0.00012654       0.00031151      -0.00037313
H      -13.43855434     -23.73216341      -0.82868325       0.00032154      -0.00003898      -0.00005233
H      -14.68770977     -25.21582249      -2.42058417      -0.00014545      -0.00035974       0.00022331
H      -14.02393184     -23.81412269      -3.26129841      -0.00008189      -0.00011501      -0.00014625
H      -16.42377349     -25.27377520       0.58023838      -0.00016476       0.00017818       0.00062487
H      -17.28004175     -23.99827127      -4.47025386       0.00010907      -0.00035407      -0.00020259
