21
Properties=species:S:1:pos:R:3:forces:R:3 -3140.33485=T energy=-31483.286523717557 free_energy=-31483.286523717557 pbc="F F F"
S        3.98082016     -15.48980905      13.83017475      -0.00006668       0.00013277       0.00006211
O        3.22268378     -14.28636859      14.05089541       0.00003225      -0.00000596       0.00000888
O        3.56143451     -16.53751728      12.93917153      -0.00000158      -0.00010490      -0.00003141
O        5.45544242     -15.00670556      13.36766096      -0.00004181       0.00007957       0.00004217
O        4.30603421     -16.18946148      15.23282297       0.00000480       0.00006202      -0.00003152
H        5.85855167     -15.72851145      12.85696871       0.00005023      -0.00008432      -0.00006267
H        4.37152732     -15.49695920      15.92377071       0.00000238      -0.00005269      -0.00000413
C        4.59404454     -10.09638629      14.28477255      -0.00001144      -0.00003798       0.00020783
C        5.07190608     -11.50759326      14.03638046      -0.00008523      -0.00002217      -0.00002488
C        5.31217633     -12.31500640      15.30642642       0.00001478       0.00020385       0.00009191
C        4.05018477     -12.45851818      16.11800670       0.00014710      -0.00012814      -0.00000679
O        3.82030565      -9.49219163      13.58730504      -0.00010788       0.00009806      -0.00023141
O        5.19546407      -9.54218433      15.35751091       0.00013208      -0.00001043       0.00011802
O        3.11908825     -11.68937599      16.09312318      -0.00014893       0.00009631      -0.00003169
O        4.06085023     -13.55229133      16.91369005      -0.00010377      -0.00004065       0.00010943
H        4.34219654     -11.99602043      13.38355066       0.00002266       0.00000542       0.00000638
H        6.00796111     -11.43035684      13.46708764       0.00007492       0.00001594      -0.00001069
H        6.04945390     -11.80408759      15.93925705      -0.00001820      -0.00003964      -0.00004137
H        5.71053694     -13.30215776      15.06119455       0.00003438      -0.00007695      -0.00003237
H        4.81964907      -8.65037621      15.44073799      -0.00003582      -0.00010897      -0.00008770
H        3.21170103     -13.54157619      17.39040016       0.00010567       0.00001878      -0.00005024
