21
Properties=species:S:1:pos:R:3:forces:R:3 -3140.32438=T energy=-31483.31757749905 free_energy=-31483.31757749905 pbc="F F F"
S       -1.79236258       1.92293478      -3.58743588       0.00030301       0.00019447       0.00018386
O       -1.87328216       0.55879155      -4.05686514       0.00057642      -0.00027800       0.00008592
O       -1.27792025       2.97080460      -4.41918614       0.00029883      -0.00009000       0.00010628
O       -3.22403555       2.33688760      -2.99301644       0.00012031      -0.00030895      -0.00014862
O       -0.97391454       1.95979017      -2.21228777       0.00020429       0.00015886       0.00020945
H       -3.87709872       2.20024625      -3.71183072       0.00047579      -0.00015706      -0.00009592
H       -1.16399730       1.14585274      -1.71378939      -0.00005706       0.00011425       0.00064734
C       -4.51041331      -0.21371240      -5.66953736      -0.00033048       0.00003218      -0.00009906
C       -4.30514081      -1.17595953      -4.52762543       0.00005972       0.00022626      -0.00006652
C       -4.97846444      -0.78305557      -3.22146702       0.00013864       0.00008252      -0.00009847
C       -6.47789540      -0.68650180      -3.36545402       0.00011611      -0.00004973       0.00023448
O       -4.42818614      -0.50609134      -6.83264450      -0.00050961      -0.00018848      -0.00025477
O       -4.74319354       1.06711863      -5.26715428      -0.00038359       0.00008345      -0.00010026
O       -7.09805410      -0.97365135      -4.36140683      -0.00013745      -0.00077541      -0.00015091
O       -7.06823133      -0.25089518      -2.23944340      -0.00000101       0.00017065      -0.00002921
H       -4.64890710      -2.15219232      -4.87879650       0.00013368       0.00010669       0.00012720
H       -3.22010149      -1.22180284      -4.38632675      -0.00007254       0.00039156      -0.00013029
H       -4.60011171       0.17638069      -2.84977345      -0.00014269       0.00013845       0.00000967
H       -4.76126730      -1.52628013      -2.44614395       0.00007836       0.00006947      -0.00009111
H       -4.82422385       1.58662135      -6.08831898      -0.00067165       0.00003381      -0.00021634
H       -8.01987974      -0.21682951      -2.43304915      -0.00019907       0.00004534      -0.00012269
