21
Properties=species:S:1:pos:R:3:forces:R:3 -3140.32560=T energy=-31483.300106933933 free_energy=-31483.300106933933 pbc="F F F"
S        4.01432322      16.65888709      28.43672076      -0.00059053      -0.00023473       0.00017844
O        3.62572610      15.28204332      28.28470550       0.00003862      -0.00018120      -0.00005823
O        5.35060988      17.06057625      28.78232722       0.00057220       0.00007021      -0.00001684
O        3.53042550      17.40931722      27.12013445       0.00033683       0.00045546      -0.00005549
O        3.06214836      17.33210151      29.55506505      -0.00037873       0.00010928      -0.00001986
H        3.75963416      18.37564675      27.17326331      -0.00022165      -0.00020382       0.00000735
H        2.19655687      16.89055113      29.51750414       0.00015566       0.00013088       0.00000646
C        2.48239109      20.55233130      26.83012493       0.00034055      -0.00061753       0.00070642
C        1.19761450      19.77347498      26.98871151      -0.00012350      -0.00007176       0.00019659
C        0.18382676      20.08865676      25.89350851      -0.00011337       0.00021961      -0.00034744
C        0.76998185      19.82784554      24.52899343      -0.00021923       0.00018203       0.00014186
O        3.60185897      20.11752528      27.02145305      -0.00032614       0.00010432      -0.00032431
O        2.27819932      21.82743332      26.48737298      -0.00037491       0.00040627      -0.00038746
O        1.91252203      19.48160835      24.33215975       0.00012991      -0.00011616      -0.00002972
O       -0.11040521      20.02567796      23.53385503       0.00001037      -0.00003445       0.00017723
H        1.45484223      18.71010134      27.01203625      -0.00009240       0.00042692      -0.00010718
H        0.78420397      20.03378995      27.97077037       0.00035315      -0.00021926      -0.00041973
H       -0.11428839      21.14190938      25.93871692       0.00010719      -0.00050768       0.00016378
H       -0.72025396      19.48416361      26.01370799       0.00009160       0.00003374      -0.00003478
H        3.15521409      22.23810026      26.40035513       0.00032835       0.00004854       0.00014153
H        0.37060330      19.84567817      22.70857674      -0.00002423      -0.00000045       0.00008142
