21
Properties=species:S:1:pos:R:3:forces:R:3 -3140.42256=T energy=-31483.409354936015 free_energy=-31483.409354936015 pbc="F F F"
S        5.55690377     -13.48510640      17.98242170       0.00035905      -0.00025256      -0.00002061
O        6.42140967     -14.42028868      17.31987340      -0.00002766      -0.00012553       0.00012463
O        4.48176050     -12.83186153      17.26550433      -0.00012612       0.00015473      -0.00007092
O        4.92756959     -14.23189273      19.25332033       0.00022319      -0.00022554      -0.00011742
O        6.41000427     -12.39768962      18.76567843      -0.00006303       0.00002325      -0.00011156
H        4.15031179     -13.72828331      19.55236769      -0.00007384       0.00034496       0.00013806
H        6.94361493     -11.88058523      18.10723758      -0.00003746      -0.00006593      -0.00015327
C        6.78503910      -9.51480399      17.34581781      -0.00009287      -0.00004926      -0.00012682
C        5.31880878      -9.66995583      17.65195525      -0.00009727       0.00009599       0.00001431
C        4.46285101      -8.45743201      17.31239470      -0.00007302       0.00009751       0.00002003
C        4.47841827      -8.17120867      15.82938177      -0.00011712       0.00001909       0.00008273
O        7.56862626     -10.44502629      17.28924501       0.00004463      -0.00009458      -0.00000493
O        7.18450773      -8.25242422      17.18527394       0.00007558       0.00008082       0.00016290
O        5.04723567      -8.84377353      15.00238808       0.00015507      -0.00013145      -0.00006723
O        3.77080699      -7.07270877      15.51029843       0.00002444       0.00005078      -0.00005293
H        4.97583883     -10.55759785      17.10729621      -0.00010418      -0.00005178       0.00005385
H        5.24649554      -9.92962398      18.71691300      -0.00007333      -0.00000396       0.00016296
H        4.81083978      -7.56369003      17.84030189      -0.00004528       0.00000393      -0.00003492
H        3.42455305      -8.63046931      17.61442942       0.00007036       0.00011355      -0.00002994
H        8.13564532      -8.27704930      16.98430385      -0.00010733       0.00001845       0.00000116
H        3.85383709      -6.97468125      14.54708088       0.00008639      -0.00000256       0.00003033
