21
Properties=species:S:1:pos:R:3:forces:R:3 -3140.33119=T energy=-31483.558156417534 free_energy=-31483.558156417534 pbc="F F F"
S      -17.46226134      -9.10906507      -0.40348936       0.00012617      -0.00027888       0.00011406
O      -17.76494686      -7.79622436       0.07904954       0.00002941       0.00019681      -0.00014907
O      -18.24662325     -10.24404345       0.07495386       0.00000826      -0.00014114       0.00014878
O      -17.55008150      -9.09103565      -1.99294040      -0.00008231       0.00009511      -0.00043067
O      -15.92793828      -9.45975509      -0.25861307      -0.00006041       0.00014364       0.00040179
H      -17.17104109      -9.91629297      -2.34216927       0.00004897       0.00014663       0.00007125
H      -15.69203115      -9.50005942       0.69897820      -0.00001523      -0.00009795      -0.00023475
C      -14.59647951      -9.96797334       3.36562325      -0.00006424      -0.00003357      -0.00005254
C      -14.79626097     -11.43059440       3.66189960       0.00030513       0.00002503      -0.00012195
C      -16.23395600     -11.66914700       4.15005391       0.00019681       0.00031406      -0.00027156
C      -17.27219766     -11.15499460       3.17284730       0.00023246      -0.00030816      -0.00002503
O      -14.87097568      -9.42690659       2.31144761       0.00015517      -0.00007837       0.00003938
O      -14.14140237      -9.26927554       4.40903380       0.00005102      -0.00039944      -0.00018048
O      -18.21050690     -10.46559344       3.49637100      -0.00072999       0.00052206       0.00039124
O      -17.02130142     -11.55932206       1.93290842       0.00025332      -0.00056756      -0.00053895
H      -14.63824085     -11.98857667       2.73609472      -0.00021927       0.00003487       0.00018491
H      -14.08054253     -11.75603665       4.41871995       0.00015978       0.00006080       0.00000839
H      -16.42189556     -11.18092910       5.10976646      -0.00019018       0.00001142       0.00063274
H      -16.39788541     -12.74493452       4.28329459       0.00002060      -0.00026658      -0.00001813
H      -14.10801234      -8.34066601       4.12236919      -0.00004937       0.00038132       0.00006925
H      -17.61916438     -11.08217750       1.29832496      -0.00017626       0.00024021      -0.00003840
