21
Properties=species:S:1:pos:R:3:forces:R:3 -3140.26745=T energy=-31483.331024879204 free_energy=-31483.331024879204 pbc="F F F"
S      -20.31622287     -17.26196733      -7.56644243       0.00011387      -0.00017937      -0.00011530
O      -19.26822101     -17.79321317      -8.40785028      -0.00011706       0.00000572      -0.00003588
O      -20.91847965     -15.99032288      -7.85033074      -0.00008285       0.00015056      -0.00001255
O      -21.48142416     -18.38970573      -7.48548657      -0.00012071      -0.00016218      -0.00034568
O      -19.89436259     -17.27518133      -6.05218616      -0.00003687       0.00005351       0.00003619
H      -21.70862430     -18.65897422      -8.39273754       0.00016699       0.00019290       0.00032997
H      -19.36250511     -18.08591850      -5.84518320       0.00001207      -0.00002961       0.00013224
C      -19.81617244     -22.26706608      -6.50054903       0.00008310       0.00006852      -0.00043274
C      -20.67553829     -21.19471975      -5.87030356      -0.00019562      -0.00014901       0.00008178
C      -20.35642913     -20.88833422      -4.41208623      -0.00003776      -0.00014570      -0.00000155
C      -19.00202524     -20.24411639      -4.24360608      -0.00009561       0.00011289       0.00017346
O      -20.13689637     -22.95359652      -7.43715229       0.00006182       0.00007693       0.00038584
O      -18.60761171     -22.36089633      -5.90631541      -0.00009143      -0.00021893      -0.00013232
O      -18.54390856     -19.38706569      -4.97697803       0.00020607       0.00021719      -0.00036970
O      -18.34900249     -20.66160470      -3.16262546       0.00014565      -0.00004435       0.00031376
H      -20.54732493     -20.28849440      -6.47709551       0.00001800       0.00026979      -0.00007922
H      -21.71666673     -21.50317724      -5.99395220       0.00009732      -0.00007895      -0.00004443
H      -20.40363908     -21.77773474      -3.77920816      -0.00002198      -0.00000733       0.00009065
H      -21.08606213     -20.16420595      -4.03052226      -0.00001650       0.00000043       0.00002392
H      -18.11689527     -23.04428332      -6.39179209       0.00002401       0.00001055       0.00007520
H      -17.49905918     -20.19015873      -3.15634683      -0.00011220      -0.00014337      -0.00007346
