21
Properties=species:S:1:pos:R:3:forces:R:3 -3140.51759=T energy=-31483.716957877627 free_energy=-31483.716957877627 pbc="F F F"
S      -16.22654747      -8.86613443     -15.57764482      -0.00047739      -0.00008057       0.00040326
O      -17.49113550      -9.05695175     -16.22096954      -0.00010943       0.00003365       0.00020868
O      -15.06737937      -8.43406796     -16.33720473       0.00048614       0.00061113      -0.00057486
O      -16.44574944      -7.91054372     -14.34295858      -0.00013271      -0.00010094       0.00018016
O      -15.73158164     -10.22173357     -14.87727007       0.00008656      -0.00025873       0.00006556
H      -15.57311595      -7.74004117     -13.89943800       0.00013361      -0.00004640       0.00009770
H      -16.43386665     -10.54282835     -14.28833802      -0.00034257      -0.00011068      -0.00024896
C      -12.06007886      -7.65031912     -11.22911298      -0.00021345       0.00030672      -0.00007603
C      -11.70519380      -6.44059882     -12.06239180       0.00012600       0.00017691      -0.00008917
C      -11.60222843      -6.70738264     -13.55728857       0.00018564       0.00000010       0.00026488
C      -12.90622784      -7.20103262     -14.13402476       0.00010276       0.00013840      -0.00010169
O      -12.56502647      -7.60705298     -10.13570423      -0.00037022      -0.00007417      -0.00015220
O      -11.70076801      -8.80971647     -11.81881384       0.00055814       0.00039589       0.00023568
O      -13.92258098      -7.29513855     -13.45212270      -0.00032080      -0.00005111       0.00030178
O      -12.83979950      -7.49789725     -15.40834571       0.00031734       0.00000928      -0.00022972
H      -12.45685244      -5.67841972     -11.84497426       0.00001205      -0.00023551      -0.00028795
H      -10.74931076      -6.06487781     -11.67641804      -0.00030312       0.00002697      -0.00003516
H      -10.83113995      -7.45360220     -13.77472054       0.00005287      -0.00026726      -0.00013299
H      -11.32444224      -5.79367731     -14.09371231       0.00014210      -0.00007230       0.00006234
H      -11.98287717      -9.51432694     -11.21268934       0.00015655      -0.00037481       0.00022084
H      -13.72206132      -7.83505562     -15.71128531      -0.00009062      -0.00002688      -0.00011160
