21
Properties=species:S:1:pos:R:3:forces:R:3 -3140.31385=T energy=-31483.311209010546 free_energy=-31483.311209010546 pbc="F F F"
S       -5.52139519      19.73796109      24.18842111      -0.00032320      -0.00045887      -0.00031919
O       -5.28802137      18.76044436      23.14881869      -0.00026315       0.00038958       0.00057310
O       -6.82729867      20.21468812      24.52800379       0.00030261      -0.00013399      -0.00005877
O       -4.79861346      19.13179893      25.48693502       0.00005588      -0.00002837      -0.00012806
O       -4.61478565      21.02391730      23.89258942       0.00047123       0.00003561       0.00015526
H       -5.15571172      19.57240394      26.27626127      -0.00001620       0.00008039      -0.00028428
H       -3.69066976      20.74033534      23.78363665      -0.00028155       0.00013219       0.00004754
C       -6.69476155      15.79360789      21.90394994       0.00017629      -0.00000107       0.00017571
C       -6.77305324      14.28456736      21.77499599       0.00009982      -0.00010061       0.00010329
C       -6.55679110      13.51107583      23.06945220      -0.00007343      -0.00001013      -0.00005519
C       -7.64709915      13.77612840      24.07778627      -0.00006604      -0.00008631       0.00022018
O       -7.28361236      16.54008569      21.15815093      -0.00011067       0.00016470      -0.00012803
O       -5.86891338      16.18609680      22.86987260      -0.00004780      -0.00011861      -0.00007927
O       -8.62810449      14.45335740      23.88044316       0.00001558      -0.00003246       0.00009890
O       -7.42172783      13.15232077      25.24868863       0.00002575       0.00015056      -0.00030100
H       -7.74270279      14.05573118      21.32733326      -0.00001397      -0.00002001      -0.00000819
H       -6.00784849      14.00247912      21.04003490       0.00001976       0.00000685      -0.00002989
H       -5.59530274      13.77688756      23.52191094       0.00011507       0.00004645       0.00004908
H       -6.53686895      12.43416499      22.87071843      -0.00002198      -0.00007707      -0.00003118
H       -5.82397775      17.16691470      22.89457746       0.00001141       0.00003307      -0.00001090
H       -8.17045069      13.38533119      25.82236809      -0.00007556       0.00002838       0.00001119
