21
Properties=species:S:1:pos:R:3:forces:R:3 -3140.35877=T energy=-31483.489058357813 free_energy=-31483.489058357813 pbc="F F F"
S      -16.74486460     -21.22223984      -2.25637807       0.00064486       0.00002532       0.00042419
O      -17.47064612     -22.44382836      -2.46964227      -0.00025690      -0.00048971      -0.00016667
O      -16.99106498     -20.03161956      -3.02064963      -0.00025329       0.00047946      -0.00049216
O      -16.96056768     -20.88240585      -0.67381737      -0.00033540      -0.00043488       0.00003812
O      -15.18192437     -21.47159166      -2.27359851      -0.00004071      -0.00021143       0.00055353
H      -16.35923764     -20.15829170      -0.42422874       0.00031064       0.00042193       0.00004322
H      -14.94740038     -22.13344660      -1.57309513      -0.00016606       0.00027320      -0.00040100
C      -11.83271457     -22.80662104       1.33473806      -0.00009968       0.00005250       0.00007391
C      -12.70042846     -23.93205538       1.84895459      -0.00008821      -0.00012302       0.00001526
C      -14.11022813     -23.51696706       2.24641839       0.00010407       0.00013793       0.00002182
C      -14.88469647     -22.95596482       1.08132139       0.00001812      -0.00021529      -0.00001693
O      -10.87749130     -22.94931182       0.61386725       0.00009727      -0.00000830      -0.00005257
O      -12.20853053     -21.60266780       1.81439326      -0.00007069      -0.00015467      -0.00002933
O      -14.42548436     -22.89209874      -0.04959928      -0.00008560       0.00002165       0.00024067
O      -16.10306322     -22.56028614       1.41108325       0.00025976      -0.00004808      -0.00003016
H      -12.71539129     -24.69809630       1.07037868       0.00006405      -0.00001771      -0.00010741
H      -12.17457353     -24.36286886       2.71019074      -0.00007685       0.00001687       0.00003129
H      -14.09072809     -22.75789661       3.03499852      -0.00003698       0.00004271      -0.00001525
H      -14.66853520     -24.37426325       2.63694622      -0.00002005      -0.00001657       0.00002074
H      -11.59797307     -20.95775525       1.42094283       0.00014894       0.00013763      -0.00002771
H      -16.53689591     -22.19534658       0.61138481      -0.00011711       0.00011109      -0.00012328
