21
Properties=species:S:1:pos:R:3:forces:R:3 -3140.34846=T energy=-31483.307077562094 free_energy=-31483.307077562094 pbc="F F F"
S        7.21488741     -13.77604879      15.79689218       0.00006361      -0.00003770      -0.00018191
O        7.18004642     -15.20790405      15.63713835      -0.00003077       0.00023341       0.00002646
O        6.64576919     -12.92605211      14.78003348       0.00033298      -0.00017715       0.00042212
O        6.66953275     -13.36828389      17.24560900       0.00020589      -0.00000814      -0.00029516
O        8.70285969     -13.29047680      16.14651652      -0.00030071       0.00011605       0.00008798
H        5.77764096     -13.73577526      17.37817025      -0.00002474      -0.00002690      -0.00000050
H        9.29571472     -13.48774554      15.39977402      -0.00025227      -0.00010924      -0.00004555
C        8.76311504      -8.84693535      16.65813268      -0.00010831      -0.00015798       0.00001038
C        7.96079758     -10.03405175      16.18277891      -0.00001454       0.00003195       0.00006825
C        6.58412877     -10.15165112      16.81833381      -0.00013173       0.00002617      -0.00013256
C        5.74757545      -8.92109684      16.57334286       0.00003743       0.00005198      -0.00008297
O        9.60754451      -8.28224806      16.01160382       0.00016582       0.00012371      -0.00011614
O        8.47112875      -8.51278660      17.93130487      -0.00003517       0.00007191       0.00010645
O        6.08187887      -7.97724838      15.89806251      -0.00003298      -0.00018186       0.00011434
O        4.55967661      -8.98601451      17.19633340       0.00004840      -0.00002205       0.00001645
H        7.89707942      -9.95389800      15.09383154       0.00001642       0.00000299      -0.00001532
H        8.56121142     -10.92613009      16.40201011      -0.00001130       0.00001569      -0.00000699
H        6.66484941     -10.29331382      17.90150704       0.00003758       0.00000018      -0.00001471
H        6.04941241     -11.01744202      16.41467509       0.00000999       0.00009069       0.00005734
H        9.03005348      -7.74633688      18.14090610      -0.00001615      -0.00001616      -0.00001414
H        4.10403939      -8.15300254      16.98983097       0.00004075      -0.00002799      -0.00000367
