21
Properties=species:S:1:pos:R:3:forces:R:3 -3140.38470=T energy=-31483.345998490786 free_energy=-31483.345998490786 pbc="F F F"
S      -15.39239027      -7.94612957     -26.60459654       0.00030059      -0.00011563       0.00040170
O      -15.06567259      -7.99633406     -28.01115255       0.00011390       0.00002581      -0.00012183
O      -15.38799203      -6.70829590     -25.87803409       0.00008258      -0.00007963      -0.00008059
O      -16.76201852      -8.72076552     -26.36521890      -0.00025046       0.00002295      -0.00001222
O      -14.42110083      -8.95246256     -25.81936883      -0.00041854       0.00079146       0.00009631
H      -17.50431415      -8.26646578     -26.86139041       0.00002775      -0.00010961       0.00008887
H      -14.22496058      -9.70339259     -26.40680883       0.00015200      -0.00051234      -0.00035137
C      -19.81053362      -9.03414084     -26.68668611      -0.00022528      -0.00024878       0.00022488
C      -21.29489767      -9.21156246     -26.86055763      -0.00010347      -0.00002182       0.00014864
C      -22.01699423      -9.71746912     -25.61458945       0.00006145       0.00014597       0.00030947
C      -21.89339457      -8.74966429     -24.46451130       0.00011486       0.00022721       0.00024009
O      -19.16227464      -8.16928555     -27.25159199       0.00035556       0.00031914      -0.00013680
O      -19.27251127      -9.96564352     -25.89923037      -0.00021705       0.00001156      -0.00004190
O      -21.30198445      -7.69642156     -24.50637174      -0.00030963      -0.00042783      -0.00004231
O      -22.52938943      -9.17952339     -23.35969271       0.00010026       0.00020361      -0.00044614
H      -21.69836717      -8.25595315     -27.20293468       0.00003607      -0.00010102      -0.00000190
H      -21.42433839      -9.92871651     -27.68111407      -0.00008024      -0.00003603      -0.00003687
H      -21.60347521     -10.68131138     -25.29805173       0.00009109      -0.00018703      -0.00013557
H      -23.08099972      -9.87128082     -25.82230605      -0.00002004       0.00006177      -0.00009676
H      -18.30538368      -9.82204252     -25.84462797       0.00013277       0.00002649      -0.00007238
H      -22.38554473      -8.49462774     -22.68548127       0.00005646       0.00000380       0.00006621
