21
Properties=species:S:1:pos:R:3:forces:R:3 -3140.22416=T energy=-31483.37061160811 free_energy=-31483.37061160811 pbc="F F F"
S       -1.88887745     -15.79740743      11.96378878      -0.00009870       0.00024354       0.00026080
O       -1.08002586     -16.95289144      11.70686142      -0.00006068      -0.00020635       0.00042284
O       -3.18360780     -15.61223284      11.37436217      -0.00017869       0.00008714      -0.00013188
O       -2.00743624     -15.73105166      13.57400162       0.00005403       0.00063617      -0.00022739
O       -1.06745434     -14.46090349      11.67290219       0.00007494      -0.00001962      -0.00030734
H       -2.45571996     -14.90529768      13.82352425      -0.00096426       0.00002816      -0.00026252
H       -0.24710634     -14.46907742      12.20851909       0.00010632       0.00004361      -0.00021931
C        2.46112713     -14.10913261      13.87002011      -0.00019649      -0.00025914       0.00012502
C        2.38465556     -15.23350308      14.87364198      -0.00009483      -0.00030637       0.00014448
C        1.29193021     -16.26837098      14.63954062       0.00006175      -0.00021803      -0.00000493
C        1.35810614     -16.88696981      13.26550746       0.00035247      -0.00022936      -0.00001693
O        3.47374219     -13.54300924      13.55515868       0.00020762      -0.00017768      -0.00048151
O        1.24883722     -13.71466518      13.38200752      -0.00001991       0.00018379      -0.00003365
O        1.95186489     -16.37910786      12.33599554       0.00003613       0.00036682       0.00016730
O        0.67001275     -18.02610645      13.19089998       0.00009012       0.00003505       0.00002301
H        3.37981561     -15.68803762      14.88865151       0.00030297       0.00024202       0.00017595
H        2.24475731     -14.76100708      15.85416962      -0.00011197       0.00041229       0.00003286
H        0.29390598     -15.81416158      14.71832372       0.00038464      -0.00035276       0.00041489
H        1.33883779     -17.06645863      15.38526278       0.00029546      -0.00037509      -0.00010198
H        1.44980444     -12.93641943      12.82926372      -0.00029113      -0.00020328       0.00023247
H        0.43594996     -18.15288451      12.25455031       0.00004986       0.00006876      -0.00021231
