21
Properties=species:S:1:pos:R:3:forces:R:3 -3140.46854=T energy=-31483.404387385228 free_energy=-31483.404387385228 pbc="F F F"
S        1.65842195       6.38275384      28.95864184       0.00006899       0.00003486       0.00050500
O        2.18027939       5.34150381      29.80621301       0.00019491       0.00055850      -0.00010467
O        1.04493047       6.11171955      27.68525205       0.00029254      -0.00063798      -0.00037789
O        0.56939790       7.17883013      29.86227511      -0.00014037      -0.00019935      -0.00079381
O        2.75572707       7.49594106      28.72084055      -0.00019982      -0.00016641      -0.00046346
H       -0.03983671       7.63057360      29.25538036       0.00050445      -0.00027072      -0.00026885
H        3.31967765       7.58721848      29.53452405      -0.00011090       0.00035339       0.00013860
C        3.93101530       7.35085268      32.06409157      -0.00024406       0.00018394       0.00008246
C        2.49170407       7.13702168      32.44496597      -0.00026321      -0.00005633       0.00014997
C        2.18489387       7.37369320      33.91814832      -0.00015646       0.00004745       0.00022697
C        2.43784056       8.80799019      34.31345664       0.00048220      -0.00005555       0.00016215
O        4.32210397       7.64407287      30.94919690      -0.00029910       0.00026511       0.00003621
O        4.78701964       7.13381400      33.06487478      -0.00020743       0.00022402      -0.00019014
O        2.80435366       9.67971561      33.56109503       0.00072926      -0.00048627       0.00036514
O        2.20112407       9.02954065      35.61877266       0.00015444       0.00001377       0.00005424
H        1.88073790       7.77934577      31.80354479      -0.00046338      -0.00007223       0.00003546
H        2.26314257       6.10438845      32.15306958      -0.00019291      -0.00016779       0.00013481
H        2.79792029       6.72855970      34.55666475      -0.00041561      -0.00018399       0.00005528
H        1.13565187       7.14107333      34.12968952      -0.00000793       0.00028028       0.00015461
H        5.68052750       7.28965055      32.71436396      -0.00040830       0.00040411      -0.00005738
H        2.39683567       9.96939066      35.76940644       0.00068284      -0.00006908       0.00015474
