21
Properties=species:S:1:pos:R:3:forces:R:3 -3140.35278=T energy=-31483.421840109164 free_energy=-31483.421840109164 pbc="F F F"
S      -17.44325302     -10.55487327     -16.15951679      -0.00022447       0.00009099       0.00015959
O      -17.25432947     -10.92652429     -14.77603840      -0.00004382      -0.00006351      -0.00001383
O      -16.62462793     -11.13910633     -17.18858294       0.00012493      -0.00011829      -0.00019836
O      -18.98829520     -10.79640060     -16.44773122       0.00001830       0.00006493      -0.00024372
O      -17.42705752      -8.96810272     -16.29572927      -0.00013533       0.00007030      -0.00004033
H      -19.17384241     -10.59193083     -17.38064413       0.00009744      -0.00007533       0.00028117
H      -16.50785816      -8.65990648     -16.15180603       0.00014280      -0.00000443       0.00003873
C      -14.20198218      -9.91874432     -13.33117909       0.00000280       0.00010166      -0.00007519
C      -13.02130942      -8.98655615     -13.51521282       0.00004482       0.00006533      -0.00000727
C      -13.04919991      -8.20093569     -14.83178657      -0.00015514       0.00004697      -0.00011194
C      -14.06138697      -7.08074808     -14.78261530      -0.00011802       0.00008106       0.00007871
O      -14.14155028     -10.98741176     -12.77465146      -0.00005227      -0.00010599       0.00005192
O      -15.31619722      -9.40783433     -13.86294201       0.00011313       0.00006378       0.00003958
O      -14.05343786      -6.19792556     -13.96108950       0.00003393      -0.00011789      -0.00012336
O      -14.99766319      -7.15105567     -15.75761674      -0.00003999       0.00008732       0.00005555
H      -13.02606368      -8.27666747     -12.67853178      -0.00000255       0.00001533       0.00002385
H      -12.11912156      -9.59470431     -13.43049069       0.00005919      -0.00006011       0.00003668
H      -13.24615908      -8.85317477     -15.68827565       0.00001467       0.00000874       0.00002041
H      -12.07400295      -7.72484450     -14.97772479       0.00004295      -0.00001529       0.00003684
H      -16.02397940     -10.08697192     -13.86960453      -0.00002832      -0.00002153      -0.00001740
H      -15.57318855      -6.37712577     -15.61907261       0.00010489      -0.00011343       0.00000779
