21
Properties=species:S:1:pos:R:3:forces:R:3 -3140.32553=T energy=-31483.453135962962 free_energy=-31483.453135962962 pbc="F F F"
S      -10.92849397      -3.23534333     -18.78770777       0.00007609       0.00017784       0.00022878
O      -10.51314483      -4.55453303     -18.39838897       0.00004447       0.00005662      -0.00000864
O      -12.02384836      -2.99747507     -19.68806167       0.00004321       0.00000286      -0.00005001
O      -11.18230969      -2.44712566     -17.41909222      -0.00011721       0.00028806      -0.00023326
O       -9.69018791      -2.43537907     -19.40806088       0.00010520      -0.00011162       0.00014445
H      -11.54555189      -1.56696565     -17.61670230       0.00017525      -0.00038211       0.00009422
H       -8.88627576      -2.64002414     -18.90039951      -0.00035499      -0.00000917      -0.00013077
C      -10.50276203      -7.44540130     -20.36832545      -0.00039940       0.00003519       0.00009458
C      -11.37252803      -7.80517844     -21.56049191       0.00008535       0.00004411      -0.00006723
C      -12.60177095      -6.91081979     -21.70469321       0.00007379      -0.00002474      -0.00008424
C      -12.20564296      -5.44793652     -21.72860861      -0.00026703      -0.00017238       0.00022480
O       -9.31920672      -7.66271982     -20.30416606       0.00051448      -0.00009765      -0.00003547
O      -11.22246244      -6.87844802     -19.38812526      -0.00010514       0.00005001       0.00002760
O      -11.08755599      -5.08195285     -22.03104084       0.00029059       0.00010301      -0.00016046
O      -13.19141476      -4.63413064     -21.36878777       0.00004983       0.00003543      -0.00003117
H      -10.73145209      -7.75047086     -22.44305513      -0.00002776      -0.00004009       0.00002922
H      -11.67112969      -8.85333711     -21.43863518      -0.00001435       0.00008117      -0.00001143
H      -13.29704729      -7.05659447     -20.87282121      -0.00006845       0.00001027       0.00012160
H      -13.14023026      -7.14158139     -22.63156545      -0.00009041      -0.00004749      -0.00009441
H      -10.62728733      -6.43661947     -18.75623968       0.00000454      -0.00003464      -0.00005345
H      -12.78314158      -3.76899825     -21.15600723      -0.00001817       0.00003605      -0.00000468
