21
Properties=species:S:1:pos:R:3:forces:R:3 -3140.33948=T energy=-31483.31315815891 free_energy=-31483.31315815891 pbc="F F F"
S       -9.88110927      -2.61492779      -5.97619860      -0.00038850       0.00030145      -0.00019550
O      -11.15680910      -2.03569001      -6.30641326       0.00047684      -0.00032353       0.00023627
O       -9.64096492      -3.31401472      -4.74502033      -0.00012797      -0.00001222       0.00018418
O       -9.51938142      -3.57896067      -7.22339329       0.00048006      -0.00025935      -0.00007999
O       -8.72369549      -1.52217665      -6.10232409      -0.00003666       0.00007583      -0.00016366
H       -8.60969696      -3.90387148      -7.11005268      -0.00050242       0.00025699      -0.00002494
H       -8.79399714      -1.10247735      -6.98653058       0.00008981      -0.00000809       0.00006785
C       -8.65397562      -1.33587810     -10.05330364      -0.00034765      -0.00009832       0.00062659
C       -9.98380164      -2.04712447     -10.08529871      -0.00016475       0.00000370      -0.00002289
C      -11.14647770      -1.24156260      -9.52196949       0.00003743       0.00015432      -0.00011617
C      -11.34301136       0.06638338     -10.24575538       0.00008354      -0.00002027       0.00010908
O       -7.78876707      -1.42168082     -10.88052649       0.00049710       0.00007618      -0.00060141
O       -8.47867720      -0.61283945      -8.90635426      -0.00017452      -0.00003743      -0.00000215
O      -10.67756587       0.44990845     -11.17803283       0.00011393      -0.00005660      -0.00013679
O      -12.36608619       0.77656682      -9.74096116      -0.00020933       0.00013241       0.00003695
H      -10.15438468      -2.33828403     -11.12385766      -0.00003290       0.00000654      -0.00001794
H       -9.85052005      -2.95987274      -9.49186152       0.00000386      -0.00004840       0.00004910
H      -11.00548380      -1.03535648      -8.45455876      -0.00002519      -0.00005735      -0.00016023
H      -12.07676137      -1.81674780      -9.59731085      -0.00002125      -0.00003356       0.00005844
H       -7.60745387      -0.18566635      -9.00173729       0.00019305       0.00007858       0.00003444
H      -12.40914670       1.59461476     -10.26387028       0.00005550      -0.00013029       0.00011923
