21
Properties=species:S:1:pos:R:3:forces:R:3 -3140.37482=T energy=-31483.33904529832 free_energy=-31483.33904529832 pbc="F F F"
S       -9.67171388      -4.16693702      -4.72642097      -0.00020969      -0.00001551       0.00002565
O      -10.82266198      -3.87200845      -3.90664054       0.00012445      -0.00017923       0.00000119
O       -9.43539799      -5.48257942      -5.24888211       0.00009102       0.00002468      -0.00012314
O       -9.58970153      -3.09000113      -5.90099801      -0.00015743       0.00002182      -0.00001284
O       -8.35217447      -3.73311784      -3.92809808       0.00014652      -0.00010553      -0.00005454
H      -10.28323756      -3.30647218      -6.58075183       0.00010868       0.00008602       0.00009014
H       -8.57084211      -2.97146734      -3.36275715      -0.00004308       0.00004366       0.00010200
C      -11.84660555      -1.52223481      -7.60667231      -0.00006412       0.00011878       0.00005218
C      -12.88509435      -0.82799177      -8.44878169       0.00001645       0.00000989       0.00011909
C      -12.52939789       0.60996029      -8.81589881      -0.00002226      -0.00005484      -0.00005472
C      -11.26534972       0.67974763      -9.63561095      -0.00001693      -0.00017002      -0.00004590
O      -11.57686640      -2.70590490      -7.69212555      -0.00003198      -0.00025061      -0.00009305
O      -11.29341352      -0.70424451      -6.70393743      -0.00011446       0.00035858      -0.00001347
O      -10.60164966      -0.27460873      -9.96679460      -0.00011605       0.00023768       0.00007761
O      -10.94283085       1.94001380      -9.97840945      -0.00000006      -0.00020790      -0.00007829
H      -13.04794658      -1.44460897      -9.33523947       0.00005610      -0.00003609      -0.00007074
H      -13.81547960      -0.84327230      -7.86743176       0.00005861       0.00005782       0.00001469
H      -12.38543413       1.21061634      -7.91101200       0.00000317       0.00005376      -0.00001831
H      -13.33891917       1.07296615      -9.38964787       0.00004482      -0.00000668      -0.00001459
H      -10.64909444      -1.21730896      -6.17465408       0.00002980      -0.00004610       0.00017062
H      -10.12104312       1.87467911     -10.49293865       0.00009672       0.00005981      -0.00007374
