21
Properties=species:S:1:pos:R:3:forces:R:3 -3140.38372=T energy=-31483.427908541544 free_energy=-31483.427908541544 pbc="F F F"
S      -14.81302700      -8.39385468      -0.56423979       0.00021241       0.00016616      -0.00004889
O      -14.13544289      -9.45443806      -1.27922240       0.00043583      -0.00004005       0.00011235
O      -15.31053559      -7.23744760      -1.25340266       0.00021344       0.00006938      -0.00022618
O      -15.94460688      -9.02210715       0.36025480       0.00025658       0.00001964      -0.00011057
O      -13.84474372      -7.87366586       0.60240970       0.00005206       0.00033651      -0.00010338
H      -16.63519941      -9.43350263      -0.22258335       0.00025819       0.00011953      -0.00041027
H      -13.29674041      -8.62097098       0.89921767      -0.00015620      -0.00002362       0.00049562
C      -16.38189948     -13.43670427       0.24637672      -0.00010544      -0.00025615       0.00041145
C      -15.51147105     -12.39189985      -0.41332621      -0.00012279       0.00006723      -0.00002301
C      -15.87943007     -12.04905103      -1.85129516      -0.00024022       0.00030839      -0.00011015
C      -17.21389213     -11.35902839      -1.96587840      -0.00033450       0.00006568       0.00018001
O      -16.06800811     -14.09171586       1.20707606      -0.00015213       0.00075047      -0.00058756
O      -17.58735541     -13.54363980      -0.35143767       0.00046408      -0.00059164      -0.00010347
O      -17.63717386     -10.51588461      -1.19514187       0.00018399      -0.00002778       0.00011691
O      -17.89537111     -11.71724665      -3.05013429      -0.00014151      -0.00034368       0.00037146
H      -15.57572562     -11.49205418       0.21124669      -0.00014133      -0.00002218       0.00011858
H      -14.47705468     -12.73994304      -0.34206049      -0.00019075      -0.00014076       0.00012823
H      -15.88012346     -12.92682204      -2.50284294       0.00003459       0.00010190       0.00004981
H      -15.14985785     -11.32391711      -2.22770347      -0.00005259       0.00018451      -0.00001761
H      -18.08542149     -14.20679224       0.15402185      -0.00022615      -0.00040843      -0.00065178
H      -18.73114114     -11.22131532      -3.02948201      -0.00024762      -0.00033608       0.00040885
