21
Properties=species:S:1:pos:R:3:forces:R:3 -3140.47056=T energy=-31483.787820186262 free_energy=-31483.787820186262 pbc="F F F"
S       -3.30121187      10.32916100      20.71269283       0.00009745       0.00019049       0.00014286
O       -3.01004932      10.22225925      22.14079393      -0.00020453       0.00015199       0.00004256
O       -3.41698611      11.61506137      20.10476153       0.00009908      -0.00029761       0.00012434
O       -2.22717402       9.47650208      19.92194544       0.00017917      -0.00009021       0.00007232
O       -4.65421631       9.52622379      20.43708200      -0.00015336       0.00023465      -0.00026282
H       -2.23147132       8.55643385      20.28553047       0.00018999       0.00012581      -0.00005469
H       -4.52286792       8.60294815      20.72924282      -0.00003758      -0.00046219      -0.00010459
C       -1.54891120       4.48087998      21.09067163      -0.00009394       0.00007084       0.00008675
C       -2.64074838       4.49456916      22.13578788      -0.00007391       0.00012600      -0.00003862
C       -2.53846799       5.62972404      23.14568482      -0.00004303       0.00008297      -0.00006294
C       -2.63796111       6.98304302      22.49355410       0.00002074      -0.00000954      -0.00035858
O       -1.64088748       3.96278256      20.00648639      -0.00005163      -0.00002686      -0.00012494
O       -0.41546207       5.07549278      21.51873903      -0.00001907       0.00000584       0.00009298
O       -2.82762824       7.11703192      21.28343858       0.00001981      -0.00021923       0.00018351
O       -2.52385126       7.98689163      23.32569578       0.00012892       0.00020269       0.00022256
H       -3.59069131       4.52521820      21.59744197      -0.00017552       0.00004792       0.00003716
H       -2.59505963       3.52576614      22.64838080       0.00011635      -0.00005819       0.00001696
H       -1.59096886       5.58724053      23.69309113       0.00019159       0.00021024      -0.00002655
H       -3.34060839       5.55872943      23.88824188       0.00005493      -0.00028240       0.00012342
H        0.20986195       5.01918082      20.77761420      -0.00007586      -0.00008201      -0.00016141
H       -2.63325133       8.84191015      22.82382717      -0.00017001       0.00007815       0.00005024
