21
Properties=species:S:1:pos:R:3:forces:R:3 -3140.33924=T energy=-31483.773158389762 free_energy=-31483.773158389762 pbc="F F F"
S       -8.36507876     -22.63021477       6.50961378       0.00042593      -0.00061031      -0.00064434
O       -7.38474411     -23.55188835       5.90259883       0.00018638       0.00046128       0.00026190
O       -9.66162765     -22.57669948       5.92796009      -0.00089049       0.00026640      -0.00025189
O       -8.38828552     -23.10252669       8.02885403       0.00020880      -0.00031934      -0.00006315
O       -7.74661541     -21.19859771       6.58535881       0.00008547      -0.00007272       0.00011894
H       -8.95182687     -22.51431407       8.56086785      -0.00031165      -0.00007029       0.00006672
H       -6.83415344     -21.22036553       6.99794930       0.00025317       0.00013492       0.00034042
C       -3.59288056     -21.32631680       9.91477185       0.00017745       0.00017987       0.00005819
C       -2.78213546     -21.68587788       8.69119428       0.00030589       0.00013387       0.00006723
C       -3.29698927     -22.89153853       7.91848836       0.00011533       0.00032663      -0.00009865
C       -4.70023975     -22.67725320       7.39063945      -0.00073457       0.00011539       0.00007379
O       -3.60577673     -20.23919118      10.43472901       0.00019964      -0.00008644      -0.00029818
O       -4.27823966     -22.37780566      10.41027579       0.00015897      -0.00002980       0.00002855
O       -5.25561293     -21.58261607       7.52699088       0.00020857      -0.00006459       0.00010895
O       -5.20184328     -23.71208699       6.80346100       0.00001305      -0.00033796      -0.00004256
H       -2.75218191     -20.79416614       8.06113579      -0.00008374      -0.00011738      -0.00004006
H       -1.75687580     -21.86603481       9.03797782      -0.00013997      -0.00003977       0.00007394
H       -3.30350147     -23.79167363       8.54127957      -0.00004626      -0.00000715       0.00009006
H       -2.65146951     -23.10113080       7.05872309      -0.00001147      -0.00014547       0.00001106
H       -4.77288768     -22.03759363      11.17380523      -0.00005824       0.00012215       0.00015353
H       -6.21782768     -23.55353408       6.45624348      -0.00006279       0.00016070      -0.00001404
