21
Properties=species:S:1:pos:R:3:forces:R:3 -3140.37108=T energy=-31483.642500166752 free_energy=-31483.642500166752 pbc="F F F"
S      -14.17772109     -23.61706496       0.77217987       0.00015737       0.00002183       0.00023193
O      -12.77262579     -23.65487329       0.40823577      -0.00013971      -0.00011505       0.00004369
O      -15.19526387     -23.51642910      -0.23288674       0.00005043      -0.00004555      -0.00024435
O      -14.51315834     -24.90472347       1.64165874       0.00012237       0.00024414       0.00008559
O      -14.41046594     -22.42754025       1.79501055       0.00037755      -0.00020826      -0.00016606
H      -13.81937888     -25.02922773       2.33091762      -0.00015965      -0.00010449      -0.00013139
H      -13.73161159     -22.46682361       2.51755134      -0.00015959      -0.00017753      -0.00004337
C      -11.80444187     -23.04107014       4.24048737       0.00021927      -0.00003956      -0.00004162
C      -10.87861737     -23.67464961       3.22643534       0.00005245       0.00008678       0.00013745
C      -10.43030037     -25.06723541       3.65978087      -0.00007093       0.00008035       0.00005621
C      -11.61162385     -25.96791848       3.90665001      -0.00010967      -0.00011230       0.00007436
O      -12.82034711     -22.42116483       3.99306761      -0.00040455      -0.00014010       0.00002858
O      -11.38960349     -23.21824204       5.49757087       0.00017142       0.00008798       0.00057739
O      -12.76628231     -25.68712992       3.64116963      -0.00012949       0.00019849       0.00003282
O      -11.28176141     -27.13380073       4.46079406       0.00000179       0.00005716      -0.00001109
H      -11.39820377     -23.69979210       2.26232150      -0.00018531       0.00017965      -0.00005823
H      -10.00854643     -23.01669296       3.12124011       0.00001857       0.00009121      -0.00009587
H       -9.84725608     -25.01932307       4.58371777       0.00007332      -0.00006168      -0.00011501
H       -9.80083732     -25.53134968       2.89400605      -0.00011203      -0.00006223      -0.00019819
H      -12.04814783     -22.79176390       6.07197615       0.00018815      -0.00011708      -0.00011534
H      -12.11386024     -27.61938814       4.59096345       0.00003874       0.00013652      -0.00004739
