21
Properties=species:S:1:pos:R:3:forces:R:3 -3140.32129=T energy=-31483.33842856134 free_energy=-31483.33842856134 pbc="F F F"
S       -7.03771809      -1.98105148      -2.41280572       0.00003707      -0.00005040      -0.00014088
O       -6.74053395      -2.74715181      -1.24266453      -0.00001508       0.00002879      -0.00012767
O       -7.61545185      -2.61044018      -3.58646367       0.00005892       0.00007183       0.00010777
O       -7.91764840      -0.72842024      -1.98962367      -0.00013462       0.00050741      -0.00044513
O       -5.74287945      -1.15768015      -2.89912150      -0.00047526       0.00053085       0.00010385
H       -7.90457964      -0.07086810      -2.70659263       0.00003517      -0.00053931       0.00054605
H       -5.03344106      -1.78909460      -3.11264299       0.00049780      -0.00054584      -0.00005280
C       -9.61375951      -5.37830608      -4.43178909      -0.00007690      -0.00021074      -0.00000748
C      -10.94358943      -6.06969574      -4.66443128       0.00003862       0.00006926       0.00000712
C      -12.10067641      -5.14609810      -5.02335426       0.00004125      -0.00006300      -0.00001055
C      -11.88829139      -4.46011362      -6.35001441      -0.00000036      -0.00002050      -0.00000668
O       -8.55479150      -5.93138872      -4.61288594      -0.00002506       0.00001447      -0.00000291
O       -9.75121466      -4.14452600      -3.95394076       0.00011659       0.00016201       0.00002587
O      -10.95942236      -4.66036650      -7.09637705      -0.00001371      -0.00002063       0.00004810
O      -12.87285653      -3.58889338      -6.63728210       0.00002086       0.00008500      -0.00015581
H      -10.77639649      -6.82338873      -5.43705313       0.00001244      -0.00002107      -0.00000614
H      -11.17156191      -6.60961050      -3.73613853       0.00002437       0.00001132      -0.00000241
H      -12.23376301      -4.37756326      -4.25427224      -0.00001381       0.00004401       0.00001913
H      -13.03599651      -5.71284328      -5.08324630       0.00001758       0.00002131      -0.00001769
H       -8.86783219      -3.74372861      -3.79285723      -0.00008648      -0.00001832      -0.00002175
H      -12.64412120      -3.20428522      -7.49970018      -0.00005929      -0.00005667       0.00014006
