21
Properties=species:S:1:pos:R:3:forces:R:3 -3140.34199=T energy=-31483.4281149315 free_energy=-31483.4281149315 pbc="F F F"
S       -9.59966917      -2.40035297     -13.16878776       0.00026023       0.00002648       0.00000023
O       -8.78280535      -2.40841623     -11.99119609      -0.00049764       0.00048730      -0.00003719
O       -9.04879039      -2.14156592     -14.48244226       0.00005029       0.00005540      -0.00005698
O      -10.41070421      -3.77413022     -13.19219434       0.00042510      -0.00021745      -0.00003332
O      -10.77902199      -1.32220147     -13.02256953      -0.00045765      -0.00028861      -0.00017690
H      -10.79735712      -3.89613862     -14.08551254       0.00043757      -0.00024471       0.00006446
H      -11.14128506      -1.37673872     -12.12257954      -0.00065766      -0.00036566      -0.00054516
C      -10.53556648      -3.71378139     -17.42719610      -0.00004189      -0.00024752      -0.00011995
C      -11.51251325      -4.75896114     -17.91938539      -0.00002170      -0.00008917      -0.00007373
C      -12.73321465      -4.97710507     -17.03414418       0.00012386      -0.00001565      -0.00010288
C      -13.58685768      -3.73787520     -16.92603624       0.00003517       0.00007391       0.00011342
O       -9.82032940      -3.07168611     -18.15190647       0.00003783      -0.00003488      -0.00001380
O      -10.49069220      -3.61942220     -16.08594939       0.00012428      -0.00015372       0.00003624
O      -13.39498204      -2.70599756     -17.52448133       0.00016896       0.00022532       0.00009790
O      -14.62188359      -3.90432915     -16.08204511       0.00008059       0.00013793       0.00022602
H      -11.79697585      -4.46714563     -18.93243244      -0.00006253      -0.00002508       0.00028708
H      -10.94181365      -5.69226054     -18.00344190      -0.00019031       0.00017630      -0.00008649
H      -12.42978457      -5.27272228     -16.02380532       0.00003697       0.00003203       0.00007210
H      -13.35533464      -5.78499754     -17.43338217      -0.00010657       0.00022886       0.00005929
H       -9.80975508      -2.94828187     -15.84806678       0.00009300      -0.00004820       0.00004708
H      -15.10110250      -3.05910607     -16.07999433       0.00016213       0.00028761       0.00024253
