21
Properties=species:S:1:pos:R:3:forces:R:3 -3140.37798=T energy=-31483.473725489846 free_energy=-31483.473725489846 pbc="F F F"
S      -12.87554843     -24.09257809       4.56377356      -0.00022486      -0.00016071       0.00030507
O      -11.68287999     -23.81220085       3.80550350       0.00023222       0.00013846      -0.00010020
O      -14.11021879     -24.45464383       3.92195051      -0.00010669      -0.00004417      -0.00003400
O      -12.44452480     -25.25392135       5.60235154      -0.00028744      -0.00005020       0.00030643
O      -13.21045655     -22.89718701       5.55384964      -0.00052182       0.00022461      -0.00045000
H      -13.16852872     -25.38969510       6.23624464       0.00036769       0.00006073      -0.00034312
H      -12.47386756     -22.80288587       6.20852223       0.00052892      -0.00017959       0.00030002
C       -8.69931108     -22.03542848       6.61057369       0.00005552      -0.00024138       0.00010127
C       -9.17420023     -23.26135817       5.86446940       0.00001276      -0.00009155       0.00008678
C       -9.55218131     -24.44034211       6.74866481       0.00006476       0.00020599       0.00007981
C      -10.62500373     -24.07733912       7.74131595       0.00019264      -0.00008345      -0.00001395
O       -8.56873148     -20.94198043       6.12309793      -0.00002977       0.00022017      -0.00021311
O       -8.40216915     -22.30256807       7.89855363       0.00007975      -0.00006795       0.00009084
O      -11.42475682     -23.16720881       7.60741763      -0.00020518       0.00017880      -0.00006247
O      -10.63206814     -24.85858749       8.81890247      -0.00033504       0.00004339       0.00021988
H      -10.01858892     -22.95704222       5.23556542      -0.00007792       0.00005017      -0.00000546
H       -8.36873489     -23.54215517       5.17617366       0.00004032      -0.00003711      -0.00000323
H       -8.69327528     -24.81962101       7.30774957      -0.00020582      -0.00005405      -0.00011295
H       -9.94843314     -25.25763757       6.13674550       0.00012270      -0.00011436      -0.00009331
H       -8.12464812     -21.45914194       8.29195633      -0.00003505       0.00010605       0.00008008
H      -11.34502992     -24.52559625       9.38961608       0.00033233      -0.00010428      -0.00013896
