21
Properties=species:S:1:pos:R:3:forces:R:3 -3140.28487=T energy=-31483.55372896777 free_energy=-31483.55372896777 pbc="F F F"
S      -14.16894060      -4.93371228      -8.35427089       0.00015240       0.00002085      -0.00019032
O      -13.88930662      -5.22464466      -9.73646681      -0.00000685      -0.00004256       0.00011349
O      -14.53402919      -3.61034697      -7.92290845      -0.00006846       0.00016987       0.00005734
O      -15.29487280      -5.97886638      -7.91452099      -0.00001860      -0.00012648       0.00002575
O      -12.94345702      -5.36909238      -7.43749790      -0.00004940       0.00001804       0.00004129
H      -15.31811321      -6.06077111      -6.93049610       0.00002083       0.00002019       0.00000397
H      -12.80830051      -6.34803318      -7.48921489      -0.00002382      -0.00002175      -0.00006416
C      -13.40659670      -8.84844357      -6.53290339      -0.00014465       0.00001740       0.00017244
C      -14.77871073      -9.09710047      -7.11882529      -0.00022244      -0.00008029       0.00005203
C      -15.84109974      -9.29366053      -6.03976868      -0.00004780      -0.00007027      -0.00016081
C      -15.94940389      -8.08672639      -5.14727558       0.00002931       0.00048518      -0.00028384
O      -12.60233228      -8.02490395      -6.92118490       0.00020721       0.00005727      -0.00014464
O      -13.12766941      -9.66918331      -5.51422862       0.00003833       0.00010455      -0.00027043
O      -15.45770552      -6.99812795      -5.38643807      -0.00007930      -0.00031501       0.00012269
O      -16.65518635      -8.30879531      -4.03996437       0.00000864       0.00020278       0.00018829
H      -15.02160185      -8.25058549      -7.76657189       0.00015253      -0.00014454       0.00020949
H      -14.70916860      -9.99655611      -7.74031418       0.00001669       0.00011504       0.00007383
H      -15.61087792     -10.16179763      -5.41714358       0.00005195      -0.00013129       0.00005272
H      -16.82250668      -9.46273974      -6.49494442       0.00002168      -0.00003024      -0.00004715
H      -12.23421645      -9.43819386      -5.20815070      -0.00003721      -0.00006965       0.00008376
H      -16.65053443      -7.47566276      -3.53889446      -0.00000058      -0.00017921      -0.00003596
