21
Properties=species:S:1:pos:R:3:forces:R:3 -3140.31734=T energy=-31483.340364734304 free_energy=-31483.340364734304 pbc="F F F"
S        5.12915759     -15.56206710      13.14101311      -0.00013551      -0.00036515       0.00002707
O        4.20216429     -16.62742659      13.44583232       0.00051343       0.00044751      -0.00009811
O        5.01085008     -14.76550898      11.95596342      -0.00003409       0.00004423      -0.00002968
O        5.21366238     -14.56736370      14.38445500       0.00001544      -0.00025020      -0.00002688
O        6.61836286     -16.17824669      13.12279098      -0.00038104      -0.00010731       0.00041578
H        5.50112845     -15.09483415      15.17621553      -0.00000946       0.00006080       0.00002024
H        6.76596622     -16.66050870      13.96008349      -0.00002192       0.00010301      -0.00028525
C        6.04380161     -15.97576689      17.47793787       0.00001907       0.00004960      -0.00052765
C        4.79562724     -15.27096537      17.94561171       0.00001550      -0.00007141       0.00011647
C        5.06510278     -14.32449354      19.11137816      -0.00021225      -0.00036418       0.00011742
C        6.11358851     -13.30846221      18.73611210      -0.00056624      -0.00035858       0.00022531
O        6.34352554     -16.15140612      16.30830969      -0.00004209       0.00008749       0.00016652
O        6.79955991     -16.43409900      18.47400329      -0.00037705       0.00001828       0.00040591
O        6.69934754     -13.29409823      17.67693336       0.00050799       0.00021948      -0.00030869
O        6.34443322     -12.40841193      19.70584600      -0.00006771      -0.00003767       0.00028443
H        4.37237003     -14.73742858      17.08914247      -0.00006653       0.00017176      -0.00011175
H        4.07261024     -16.04066006      18.24001527      -0.00005010      -0.00013031       0.00001553
H        5.42849976     -14.88259462      19.98123838       0.00009299       0.00045287      -0.00017089
H        4.15247143     -13.80087322      19.41170448       0.00003666      -0.00002940       0.00002924
H        7.57688603     -16.85690975      18.07095941       0.00048904      -0.00021164      -0.00014902
H        7.03811355     -11.81778605      19.36699918       0.00027418       0.00027041      -0.00011602
