21
Properties=species:S:1:pos:R:3:forces:R:3 -3140.42320=T energy=-31483.482166798498 free_energy=-31483.482166798498 pbc="F F F"
S       -1.03898153      19.29647491      25.02855089       0.00035677      -0.00029063      -0.00031179
O        0.18170607      18.62884910      25.37468496      -0.00077271       0.00049466      -0.00027549
O       -1.65254979      19.13615641      23.73585790       0.00035775       0.00019076       0.00084680
O       -2.08495851      18.98307388      26.18988232      -0.00005472       0.00004251      -0.00020534
O       -0.86958316      20.88590578      25.19830268       0.00007804      -0.00030951       0.00003594
H       -2.96188387      19.37898584      25.95819444       0.00015613      -0.00004362       0.00005001
H       -0.57716352      21.06520963      26.10802232      -0.00006489      -0.00005730      -0.00017807
C       -4.84067685      18.61043613      22.50839630      -0.00002330       0.00047156      -0.00026794
C       -6.01757710      17.94791295      23.20299691       0.00000691       0.00013244      -0.00007582
C       -5.61916604      16.97803851      24.31208395       0.00000685      -0.00011027      -0.00022888
C       -4.73537632      17.64307556      25.33815416      -0.00001383      -0.00038099       0.00004196
O       -4.92485285      19.63447140      21.87832463      -0.00000472      -0.00044294       0.00026685
O       -3.70649917      17.91348811      22.67371843       0.00002182      -0.00005293       0.00000846
O       -4.64107117      18.85455704      25.45400884       0.00000475       0.00033752       0.00007392
O       -4.06073123      16.78063120      26.09449176       0.00002415      -0.00002968       0.00005370
H       -6.63969254      18.75731753      23.59170427       0.00009163      -0.00015337      -0.00009381
H       -6.59975725      17.43509650      22.42925432       0.00006328       0.00001562       0.00012890
H       -5.07117525      16.12084451      23.91083914      -0.00006680       0.00018493       0.00011543
H       -6.50691361      16.59186587      24.82499496      -0.00002103      -0.00000804       0.00000748
H       -2.94432467      18.48062504      22.46178677      -0.00009789       0.00000558       0.00001706
H       -3.40501754      17.29153775      26.61010283      -0.00004815       0.00000289      -0.00000922
