21
Properties=species:S:1:pos:R:3:forces:R:3 -3140.31612=T energy=-31483.184279998582 free_energy=-31483.184279998582 pbc="F F F"
S        2.29325721      14.28044798      30.68854637       0.00022299       0.00003582      -0.00022297
O        3.32217390      14.34234258      29.68638098       0.00001884      -0.00028875       0.00015795
O        0.89807266      14.09947170      30.39066728      -0.00036490      -0.00005259       0.00008830
O        2.74983679      13.13071457      31.72227584       0.00033063      -0.00010140      -0.00021988
O        2.38187489      15.58624297      31.62408148      -0.00060819       0.00022960      -0.00001894
H        1.96108878      12.83328487      32.20611910      -0.00006443      -0.00005549       0.00002084
H        3.31190441      15.71934956      31.87455678       0.00043482       0.00020274       0.00022117
C        2.17015836      17.34078421      26.52316396      -0.00007856       0.00009201       0.00022075
C        1.64980093      16.35687863      27.54286192      -0.00004375      -0.00002253      -0.00019693
C        0.69173766      16.95795790      28.55929012       0.00015199      -0.00037885      -0.00008702
C       -0.52642085      17.54967888      27.89663051       0.00007105      -0.00015247      -0.00035977
O        2.52419237      17.05563372      25.40798486       0.00001593       0.00005571       0.00001989
O        2.25326057      18.59186386      27.01937377       0.00003481      -0.00031209      -0.00016880
O       -0.77568465      17.48203209      26.71672580       0.00016946      -0.00007604       0.00007723
O       -1.33007136      18.17188649      28.77512196      -0.00049102       0.00062153       0.00014699
H        1.18096018      15.54261077      26.98351175       0.00023915       0.00037742       0.00012756
H        2.52548831      15.93021017      28.05114179      -0.00018078       0.00017119      -0.00005171
H        1.18027750      17.75043961      29.13808965      -0.00011400      -0.00003760      -0.00006658
H        0.36243331      16.19088157      29.27105979       0.00017661       0.00011805      -0.00012705
H        2.59607956      19.14361430      26.29696852      -0.00013012      -0.00029335       0.00020548
H       -2.07205927      18.52280723      28.25518049       0.00020933      -0.00013277       0.00023397
