21
Properties=species:S:1:pos:R:3:forces:R:3 -3140.31138=T energy=-31483.3029448972 free_energy=-31483.3029448972 pbc="F F F"
S       -8.02909753      -2.73438522      -3.08632775      -0.00012628       0.00005858      -0.00010906
O       -7.08567623      -3.61334590      -3.70794213       0.00019181       0.00015211      -0.00012296
O       -9.36308523      -2.52050971      -3.60234548      -0.00001359       0.00000322       0.00000236
O       -8.13458222      -3.17134594      -1.55048070       0.00015830      -0.00019681      -0.00006706
O       -7.41019308      -1.26005162      -2.95664302      -0.00071447       0.00006589       0.00008346
H       -8.64619560      -2.50111128      -1.06469212      -0.00001063      -0.00015092       0.00001712
H       -6.44106683      -1.32847529      -2.93190579       0.00058509       0.00009962       0.00015329
C      -11.36980990      -3.32350090      -6.36757679      -0.00012161      -0.00006483      -0.00011356
C      -12.35103152      -4.19478234      -7.12801289       0.00010514       0.00003171      -0.00006902
C      -13.23675066      -5.08179070      -6.26226850      -0.00002241      -0.00000447       0.00013101
C      -14.17028460      -4.27580167      -5.39357119       0.00010061       0.00011730      -0.00008309
O      -10.96009106      -2.27410768      -6.80491150       0.00010311       0.00003827      -0.00012041
O      -10.97465810      -3.87078553      -5.22205784       0.00004078      -0.00004923       0.00023496
O      -14.27998633      -3.07276869      -5.41882847      -0.00005229       0.00001346      -0.00014960
O      -14.90299488      -5.05244279      -4.57450485      -0.00012600      -0.00003099       0.00016916
H      -12.94367573      -3.52739121      -7.75762020       0.00005957      -0.00009804       0.00002113
H      -11.74661461      -4.81578096      -7.80203659      -0.00001715      -0.00002648       0.00007568
H      -12.62723644      -5.72102603      -5.61439292      -0.00006127       0.00002743       0.00001807
H      -13.84597641      -5.74058060      -6.89032401      -0.00006345       0.00001221       0.00000973
H      -10.32097566      -3.28583989      -4.77838275      -0.00009451      -0.00008394      -0.00002897
H      -15.46306245      -4.44519014      -4.06306850       0.00007903       0.00008645      -0.00005193
