21
Properties=species:S:1:pos:R:3:forces:R:3 -3140.31584=T energy=-31483.095281324622 free_energy=-31483.095281324622 pbc="F F F"
S      -15.08144386      -4.80174552       0.57520411      -0.00025894      -0.00001624      -0.00015690
O      -14.24355403      -5.85336780       1.08225136      -0.00014389      -0.00006628      -0.00047374
O      -15.72957814      -4.84559312      -0.70543918      -0.00032032       0.00026453      -0.00028658
O      -16.18705705      -4.51962613       1.71070734      -0.00052753      -0.00001440      -0.00007790
O      -14.24253298      -3.42732258       0.60924569      -0.00004643       0.00000603       0.00022709
H      -16.92150416      -4.01655390       1.31591415       0.00037979      -0.00037798       0.00063808
H      -13.55642893      -3.50606248       1.29450908      -0.00011093       0.00000021      -0.00004095
C      -14.42711277      -9.95785898       4.66819427      -0.00017031      -0.00024955       0.00033445
C      -13.76450213      -9.10589517       3.61016943       0.00000048      -0.00020432       0.00032353
C      -14.68422101      -8.69353152       2.46874415       0.00019687      -0.00000906       0.00001204
C      -15.85294715      -7.87952988       2.96647493       0.00033236      -0.00010133      -0.00043619
O      -14.07684781     -10.02609108       5.81915704      -0.00054734      -0.00025612      -0.00048790
O      -15.44074686     -10.69764934       4.17132803      -0.00010931       0.00030118       0.00027239
O      -15.94191582      -7.42859050       4.08625999       0.00051912       0.00041210       0.00033731
O      -16.78132912      -7.70329293       2.02043027       0.00018299       0.00008610      -0.00021255
H      -13.34773813      -8.23493490       4.12201078       0.00030714       0.00014579       0.00022929
H      -12.91691892      -9.68648126       3.22427830       0.00009169      -0.00019179      -0.00004896
H      -15.07404153      -9.56317019       1.93135699       0.00025173      -0.00006412      -0.00009447
H      -14.14836952      -8.05639201       1.75437563       0.00017205       0.00019705       0.00001277
H      -15.79168508     -11.20621474       4.92096641      -0.00037120       0.00034582       0.00002425
H      -17.43575857      -7.08207009       2.38073163       0.00017223      -0.00020725      -0.00009504
