21
Properties=species:S:1:pos:R:3:forces:R:3 -3140.50576=T energy=-31483.736847138392 free_energy=-31483.736847138392 pbc="F F F"
S      -13.61710253     -10.15691624      -1.19868922       0.00028306       0.00018219       0.00012753
O      -13.86407594     -11.25532839      -2.13095042       0.00018448       0.00030792      -0.00006312
O      -13.26739425      -8.86806901      -1.70968828       0.00025871       0.00034213       0.00030771
O      -14.83086283     -10.10369168      -0.19132933      -0.00004908       0.00009376       0.00007057
O      -12.48057426     -10.62056200      -0.18653511       0.00038356       0.00051454      -0.00026890
H      -15.67315240      -9.98357133      -0.70938277       0.00034314      -0.00019994       0.00033191
H      -12.79657162     -11.39001525       0.31816254      -0.00030911      -0.00011530       0.00082040
C      -17.17073927     -10.99897056      -2.65973210       0.00025460      -0.00024753      -0.00012252
C      -18.48754796     -11.26386498      -3.35638899       0.00011492      -0.00006866      -0.00012016
C      -18.64323118     -12.66952372      -3.92868744      -0.00037315      -0.00002408      -0.00006348
C      -18.61537249     -13.72184967      -2.84821725      -0.00037853      -0.00005305      -0.00014877
O      -17.08016088     -10.19015911      -1.74605468       0.00021852      -0.00069475       0.00004191
O      -16.15952346     -11.66276637      -3.17002243       0.00000495      -0.00003135      -0.00044513
O      -18.51749895     -13.49829423      -1.66460248      -0.00086109       0.00011143       0.00017067
O      -18.72380982     -14.96804801      -3.34342036       0.00040558      -0.00015569       0.00002539
H      -19.27971987     -11.03002437      -2.64168167       0.00013926       0.00018071       0.00001897
H      -18.55821183     -10.52314694      -4.16302615       0.00005765      -0.00002418      -0.00015530
H      -17.83969468     -12.88700486      -4.64113651      -0.00058427      -0.00020093      -0.00028010
H      -19.59080829     -12.76025540      -4.47003145      -0.00049379       0.00020983       0.00028635
H      -15.30347551     -11.42828076      -2.70724891       0.00010876      -0.00006859      -0.00053750
H      -18.69185190     -15.56353555      -2.57621870       0.00029188      -0.00005819       0.00000285
