21
Properties=species:S:1:pos:R:3:forces:R:3 -3140.32207=T energy=-31483.574290516448 free_energy=-31483.574290516448 pbc="F F F"
S      -13.26901258      -6.73340388     -12.08981372      -0.00041731       0.00009113      -0.00024729
O      -14.59274770      -6.42428647     -11.61272185       0.00081110       0.00031807      -0.00017977
O      -12.25637589      -5.70139614     -12.09663408       0.00050700      -0.00005198       0.00007057
O      -12.72508582      -8.03956009     -11.39282923      -0.00026762       0.00010869       0.00023735
O      -13.32099386      -7.26072295     -13.59345869       0.00029317      -0.00034487       0.00018123
H      -12.69803665      -7.89549971     -10.41464767      -0.00008207       0.00004192       0.00001215
H      -13.99078665      -7.96356547     -13.65892985      -0.00044977       0.00022031      -0.00029863
C       -9.80598247      -7.26564092     -10.54865598      -0.00017704      -0.00022019      -0.00025542
C       -9.60637040      -8.27912002      -9.44180026      -0.00018385      -0.00004649      -0.00003242
C      -10.01031418      -7.82654042      -8.04455770       0.00003150       0.00038111      -0.00006676
C      -11.50172427      -7.69991736      -7.85234255       0.00003552      -0.00020385       0.00004298
O       -9.33858328      -7.41504752     -11.65111537      -0.00013136      -0.00009963       0.00048422
O      -10.55814247      -6.22936536     -10.17426233      -0.00006664      -0.00014138       0.00014699
O      -12.36081535      -8.01550565      -8.65375183       0.00007232      -0.00041139      -0.00012762
O      -11.81762965      -7.21327018      -6.65048637       0.00003368      -0.00028706       0.00014091
H      -10.19176653      -9.16045184      -9.73694195      -0.00021740      -0.00014527       0.00001490
H       -8.55564696      -8.57787475      -9.47553439      -0.00020365       0.00018466      -0.00001160
H       -9.56015906      -6.86267900      -7.78783133      -0.00012349       0.00062485      -0.00036149
H       -9.65797159      -8.54889575      -7.30085293       0.00036326       0.00053391       0.00002871
H      -10.94267699      -5.82793854     -10.98625858       0.00002686      -0.00008683       0.00017430
H      -12.78808802      -7.17014399      -6.62280102       0.00014596      -0.00046580       0.00004673
