21
Properties=species:S:1:pos:R:3:forces:R:3 -3140.31158=T energy=-31483.35823834778 free_energy=-31483.35823834778 pbc="F F F"
S      -13.68720476      -7.06486674     -12.55287477      -0.00058479      -0.00025320      -0.00040290
O      -14.45771874      -7.55065089     -13.66356453      -0.00010669      -0.00018919       0.00044346
O      -13.08096582      -5.75299401     -12.59002735      -0.00027943       0.00001419      -0.00045204
O      -14.52633043      -7.25733685     -11.23478737      -0.00023526       0.00016201       0.00018364
O      -12.51708916      -8.13581596     -12.22107206      -0.00003424       0.00021984       0.00016645
H      -14.26118729      -6.59430485     -10.54347990       0.00028303       0.00019020       0.00002716
H      -11.79118962      -8.00844111     -12.85654239      -0.00011305       0.00021024       0.00045676
C      -10.90011677      -7.67024578      -8.14404384       0.00033923      -0.00032293      -0.00004867
C      -11.98243797      -8.23929460      -9.03083452      -0.00000858      -0.00000399      -0.00011563
C      -13.35741762      -8.35704339      -8.37609649       0.00006914       0.00008187      -0.00003964
C      -13.96115643      -7.00702735      -8.07716971       0.00019789       0.00016451      -0.00020055
O       -9.73386769      -7.96822889      -8.18337964      -0.00015859      -0.00035606       0.00040063
O      -11.38884329      -6.73903747      -7.29720216      -0.00023663       0.00040120       0.00021905
O      -14.04131240      -6.09794774      -8.88479727       0.00072552      -0.00000811       0.00009601
O      -14.45705614      -6.90107904      -6.84899300      -0.00024015      -0.00012326      -0.00010622
H      -12.05431576      -7.58053820      -9.90431640       0.00029939       0.00011259      -0.00001292
H      -11.62760437      -9.20625441      -9.39488304       0.00019020      -0.00018491      -0.00001525
H      -13.33001509      -8.94541944      -7.45446480      -0.00009900      -0.00022112      -0.00022538
H      -14.04223327      -8.84755944      -9.07906800       0.00019201       0.00004170      -0.00028901
H      -10.63235188      -6.40869276      -6.78529363      -0.00019443       0.00017313       0.00014981
H      -14.80229334      -5.99580390      -6.76607328      -0.00000549      -0.00010890      -0.00023472
