21
Properties=species:S:1:pos:R:3:forces:R:3 -3140.38207=T energy=-31483.5175863966 free_energy=-31483.5175863966 pbc="F F F"
S       -7.55098650      -2.27278234      -3.67308971      -0.00007285       0.00001260       0.00013459
O       -8.65620826      -1.61633413      -4.33905679       0.00030196      -0.00019675       0.00044900
O       -6.30306221      -1.59750937      -3.47753660      -0.00046027      -0.00017060       0.00000402
O       -8.17471249      -2.73237469      -2.26759655       0.00066087      -0.00029604      -0.00004384
O       -7.23472012      -3.66200338      -4.35926162      -0.00031248       0.00016545       0.00007817
H       -7.51298366      -3.26396927      -1.79510066      -0.00032485       0.00009697      -0.00051221
H       -8.05595001      -4.20306695      -4.42206968       0.00013872       0.00020122      -0.00005810
C      -11.28091436      -3.56216615      -5.25262927       0.00007187      -0.00006215      -0.00006665
C      -11.78291420      -4.86180751      -5.85111195       0.00000286       0.00001788      -0.00002742
C      -10.76369082      -5.64842039      -6.66850857      -0.00002104      -0.00002217       0.00004733
C       -9.53596192      -6.04724097      -5.88783898      -0.00005198      -0.00008494       0.00042665
O      -11.82024617      -3.03390115      -4.31095884      -0.00007422       0.00019558      -0.00009992
O      -10.22307073      -3.06920278      -5.89701008       0.00005269       0.00007057      -0.00005841
O       -9.20748560      -5.59431493      -4.80705778      -0.00023962      -0.00007537      -0.00022772
O       -8.79888968      -6.96007115      -6.52540180       0.00023027       0.00014615       0.00000572
H      -12.18385426      -5.45020916      -5.01974975       0.00002915       0.00014920       0.00000664
H      -12.64045148      -4.59560635      -6.48125820       0.00002320       0.00002384       0.00003937
H      -10.41346330      -5.04278574      -7.51305112      -0.00017213      -0.00008184      -0.00005821
H      -11.21511422      -6.55312264      -7.08409251       0.00008768      -0.00015900       0.00011472
H       -9.81963576      -2.35725522      -5.35175350       0.00008714      -0.00015408      -0.00015426
H       -8.02271087      -7.12987792      -5.96404257       0.00004316       0.00022364       0.00000093
