21
Properties=species:S:1:pos:R:3:forces:R:3 -3140.49368=T energy=-31483.76069227423 free_energy=-31483.76069227423 pbc="F F F"
S        0.31790007      -0.24041902      -3.50631324       0.00010655       0.00005501      -0.00014457
O        1.32050337      -0.32634369      -4.52201415      -0.00028741      -0.00001770       0.00027204
O       -0.81307708       0.66704394      -3.68794181       0.00020111      -0.00016555       0.00000602
O       -0.26379539      -1.65278908      -3.10514392       0.00009486       0.00013715      -0.00005588
O        1.02766633       0.12930538      -2.13141045      -0.00041652      -0.00003278       0.00029185
H       -0.90014686      -1.94552166      -3.81063068      -0.00004403      -0.00001744       0.00002101
H        0.39996459      -0.00747316      -1.40061319       0.00034129       0.00002529      -0.00039125
C       -4.64825133      -3.84266587      -4.95935219      -0.00012263       0.00016011      -0.00026632
C       -4.51946388      -3.03754069      -6.23174930       0.00001873       0.00040913      -0.00017619
C       -4.33441029      -1.54149186      -6.02155681      -0.00003183       0.00032449       0.00001256
C       -3.07220729      -1.22838550      -5.25591146      -0.00001550       0.00016075      -0.00019288
O       -4.41663525      -5.02168562      -4.86620191       0.00012648      -0.00039318       0.00020463
O       -5.10815167      -3.10786934      -3.92520244       0.00012147      -0.00006008      -0.00002503
O       -2.28488979      -2.10865453      -4.91894612      -0.00006365      -0.00009885       0.00000618
O       -2.90925999       0.04616841      -5.01027596       0.00002599      -0.00014520       0.00001112
H       -3.68558301      -3.46650739      -6.79199794      -0.00007920      -0.00005197       0.00015215
H       -5.42831221      -3.22982339      -6.81558697      -0.00001435      -0.00007126      -0.00002130
H       -5.17928575      -1.11121110      -5.47392280       0.00003529      -0.00010720      -0.00015321
H       -4.27851285      -1.02199503      -6.98431926       0.00003293      -0.00015640       0.00018114
H       -5.14372416      -3.71181067      -3.16530724      -0.00004758      -0.00003729       0.00019962
H       -2.05724220       0.19534108      -4.50790448       0.00001751       0.00008364       0.00006815
