21
Properties=species:S:1:pos:R:3:forces:R:3 -3140.41977=T energy=-31483.473714947333 free_energy=-31483.473714947333 pbc="F F F"
S       -3.47353969     -15.76284235       9.09520391      -0.00023473       0.00001876       0.00019957
O       -2.37525653     -16.55050260       8.59579024      -0.00017619      -0.00056243       0.00065574
O       -4.73020238     -15.69365243       8.39989371       0.00006151      -0.00033611       0.00022817
O       -3.71706309     -16.29676748      10.60144790       0.00028151       0.00011413       0.00042468
O       -3.01910926     -14.26544388       9.36463595       0.00025505      -0.00001121       0.00015761
H       -4.35501146     -15.71004455      11.04096843      -0.00051522       0.00051931      -0.00035462
H       -2.32326052     -14.25994574      10.06876193       0.00013386       0.00004224       0.00008419
C        1.23652847     -15.47621063      10.98713289       0.00013528       0.00027313      -0.00004508
C        0.10997644     -16.45720770      10.75566657       0.00000453      -0.00001240      -0.00018382
C       -0.81872099     -16.65488830      11.94441555      -0.00013381      -0.00008726      -0.00021100
C       -1.43971587     -15.35873883      12.39429116       0.00003624      -0.00002646      -0.00015235
O        1.93391724     -15.01375894      10.12103895       0.00039259      -0.00027404       0.00045113
O        1.40429428     -15.18762836      12.29370336      -0.00026190       0.00014871       0.00000489
O       -1.58916157     -14.37279828      11.69326347       0.00008614      -0.00013673       0.00008254
O       -1.82804042     -15.37429212      13.66730938       0.00006033      -0.00005674      -0.00029254
H       -0.44720675     -16.11632374       9.87560255       0.00026259       0.00026557      -0.00010540
H        0.57478072     -17.40824367      10.47129000      -0.00007614       0.00009948      -0.00031677
H       -0.29576833     -17.09016849      12.79950040      -0.00011065      -0.00018700      -0.00018262
H       -1.64179011     -17.32385950      11.67141237      -0.00006431      -0.00004818      -0.00050464
H        2.13221280     -14.54620357      12.33697346      -0.00033323       0.00024580       0.00021553
H       -2.19386782     -14.49226330      13.84921841       0.00019652       0.00001083      -0.00015546
