21
Properties=species:S:1:pos:R:3:forces:R:3 -3140.29382=T energy=-31483.134686397923 free_energy=-31483.134686397923 pbc="F F F"
S      -14.71171928      -6.13554835       1.53574123      -0.00016588       0.00036504      -0.00037149
O      -13.57934112      -5.95564569       2.40217251       0.00017452       0.00025994      -0.00021815
O      -14.62188825      -6.55778256       0.16631308       0.00035065       0.00043640      -0.00052857
O      -15.72321147      -7.13956812       2.31067013      -0.00021482       0.00030675      -0.00029686
O      -15.58708094      -4.78730100       1.54721953      -0.00049733       0.00045156       0.00003561
H      -16.19662334      -7.68793085       1.65757320      -0.00039754       0.00017920      -0.00049792
H      -15.44642958      -4.34100972       2.40056845       0.00028796       0.00046982      -0.00042140
C      -13.08299116     -11.55371739       6.23136904       0.00011615      -0.00025170       0.00017578
C      -14.53381886     -11.93351487       6.04728043      -0.00011277      -0.00026888       0.00049700
C      -15.48476221     -10.74468366       5.99270713       0.00011343      -0.00015748       0.00012615
C      -15.14143571      -9.80426014       4.86035440       0.00029659      -0.00013757      -0.00016856
O      -12.14402237     -12.18577007       5.81841179      -0.00028855       0.00015171       0.00008344
O      -12.93681367     -10.43847119       6.97801699       0.00016272      -0.00002122       0.00004482
O      -14.21374755      -9.97836828       4.10045999      -0.00026292       0.00048632       0.00074098
O      -15.97924462      -8.76893864       4.79401440      -0.00005460      -0.00032306      -0.00005728
H      -14.58841643     -12.53819061       5.13875938      -0.00036743       0.00005328       0.00025419
H      -14.79873392     -12.59059911       6.88567812      -0.00011386      -0.00071084       0.00019306
H      -15.44932444     -10.17544912       6.92830779       0.00067165       0.00007057       0.00004575
H      -16.51858970     -11.08071271       5.85842953       0.00022241      -0.00038020      -0.00009705
H      -11.97984361     -10.28126082       7.03390797       0.00025331      -0.00044587       0.00048965
H      -15.70210158      -8.19917168       4.04819130      -0.00017398      -0.00053368      -0.00002941
