21
Properties=species:S:1:pos:R:3:forces:R:3 -3140.37589=T energy=-31483.4709584858 free_energy=-31483.4709584858 pbc="F F F"
S      -17.93469514      -8.25882826     -25.46128343       0.00001100      -0.00024439      -0.00028133
O      -17.19875233      -9.33880891     -26.06003392      -0.00033069       0.00066257       0.00047785
O      -18.87412591      -7.48961553     -26.25167216       0.00023317       0.00007290      -0.00011489
O      -18.66108570      -8.75779603     -24.13122757       0.00004949      -0.00038829       0.00007892
O      -16.95710096      -7.18531798     -24.81039673      -0.00011340       0.00013736      -0.00011322
H      -19.48537342      -9.21267664     -24.39859566       0.00010888      -0.00001253       0.00006440
H      -16.34179438      -7.63827046     -24.20785017       0.00010780      -0.00014399      -0.00003695
C      -22.35154701      -8.26941291     -25.87620728       0.00009764      -0.00004700      -0.00025571
C      -23.42056608      -9.14103244     -25.25068453      -0.00007510      -0.00000596      -0.00000477
C      -22.93837951     -10.09324245     -24.16351306       0.00033453      -0.00010061       0.00012952
C      -22.30116272      -9.35516876     -23.01178617       0.00016904      -0.00008821      -0.00011921
O      -22.60293807      -7.25356400     -26.47477707       0.00000121       0.00007630      -0.00003052
O      -21.11312586      -8.75988752     -25.73846144      -0.00033486      -0.00009632       0.00022924
O      -22.21561572      -8.15191019     -22.92426588      -0.00005301      -0.00006918       0.00013320
O      -21.81238167     -10.18552947     -22.07374409      -0.00004971       0.00019169      -0.00006175
H      -24.18898357      -8.45974215     -24.87698763       0.00012732      -0.00000431      -0.00016848
H      -23.87324327      -9.70390085     -26.07565029      -0.00010777       0.00007652       0.00016969
H      -22.19879007     -10.79627890     -24.56220031      -0.00030245       0.00005250       0.00010875
H      -23.77169857     -10.68746809     -23.77427836      -0.00008613      -0.00003603      -0.00008245
H      -20.47687766      -8.13334975     -26.16145626       0.00016619       0.00001342      -0.00010542
H      -21.40171834      -9.61483168     -21.40240073       0.00004702      -0.00004627      -0.00001645
