21
Properties=species:S:1:pos:R:3:forces:R:3 -3140.28046=T energy=-31483.375229634057 free_energy=-31483.375229634057 pbc="F F F"
S      -15.85886705     -10.84854789      -2.61126107      -0.00009832       0.00011714       0.00008051
O      -15.20261144     -11.72507996      -1.67084655       0.00001705      -0.00003839       0.00013530
O      -15.17608036     -10.32746582      -3.75945555       0.00013954       0.00009644      -0.00009537
O      -17.24280920     -11.51559625      -3.05287295      -0.00006753       0.00013807       0.00003868
O      -16.46764608      -9.59350241      -1.82571347      -0.00001751      -0.00042467      -0.00000963
H      -17.06008079     -12.40931495      -3.44180068       0.00002573      -0.00005008      -0.00006215
H      -16.85554609      -9.91055186      -0.99082195      -0.00007726       0.00014075      -0.00001352
C      -18.63119498     -16.05799767      -5.66095811       0.00001572      -0.00005883      -0.00006026
C      -18.19953850     -15.27456732      -6.87902830       0.00004250       0.00008547       0.00004840
C      -18.69530821     -13.83391111      -6.91002860       0.00002736       0.00005376       0.00001010
C      -18.20347883     -13.04416423      -5.72728288       0.00010586      -0.00000083      -0.00007081
O      -18.03894157     -17.00243548      -5.20369688      -0.00002423      -0.00000206       0.00000390
O      -19.80243299     -15.61894727      -5.15367165       0.00003111       0.00020504      -0.00022368
O      -17.48035889     -13.50951397      -4.86171064       0.00001202      -0.00004891       0.00000436
O      -18.63286631     -11.78442811      -5.72967525      -0.00005031      -0.00004721      -0.00007921
H      -17.10865728     -15.32427956      -6.91316828      -0.00004007       0.00000052      -0.00007384
H      -18.57172800     -15.82196947      -7.75413796      -0.00006758      -0.00004161      -0.00000576
H      -19.78981808     -13.79627793      -6.90757142      -0.00011533       0.00000282       0.00000502
H      -18.35659746     -13.32693201      -7.81967807      -0.00003462      -0.00010956       0.00001422
H      -19.98138002     -16.17713339      -4.37904778       0.00009795      -0.00006908       0.00031302
H      -18.28664369     -11.34617942      -4.92407779       0.00007812       0.00005109       0.00004048
