21
Properties=species:S:1:pos:R:3:forces:R:3 -3140.31601=T energy=-31483.311033842645 free_energy=-31483.311033842645 pbc="F F F"
S      -20.52608041     -16.25025653      -7.23863165       0.00027742      -0.00058947      -0.00025353
O      -19.84262111     -17.41294401      -6.71737348      -0.00044423       0.00071216       0.00001729
O      -20.71254334     -16.02079772      -8.63882898      -0.00039095      -0.00043970       0.00075120
O      -21.94174954     -16.23674232      -6.48251419       0.00021215       0.00013188      -0.00012502
O      -19.83306208     -14.93839072      -6.63681508      -0.00050247      -0.00004701      -0.00011813
H      -22.55579613     -15.67219904      -6.98148671       0.00018314      -0.00053357       0.00062693
H      -19.80586424     -15.01212557      -5.66722310      -0.00004996       0.00034666      -0.00078387
C      -19.68889648     -20.88164298      -7.27842910       0.00005817      -0.00004253      -0.00006479
C      -20.00790218     -22.31900391      -6.91473392       0.00043023       0.00004411      -0.00001192
C      -21.43259174     -22.56622068      -6.43551170      -0.00002074       0.00011149      -0.00019461
C      -22.44886308     -22.30790014      -7.52003897       0.00019622       0.00035751      -0.00005126
O      -18.83744333     -20.59012702      -8.08486044       0.00005316      -0.00015909       0.00034076
O      -20.39422839     -20.00237720      -6.57222152       0.00035298      -0.00027692      -0.00010586
O      -22.18804016     -22.01494011      -8.66289064       0.00006713       0.00004452       0.00015551
O      -23.71227337     -22.45622848      -7.08104155      -0.00000381       0.00020847      -0.00030279
H      -19.76697079     -22.92703021      -7.78952032      -0.00010048      -0.00003053       0.00013565
H      -19.29595199     -22.59761734      -6.12683963      -0.00023690      -0.00015170      -0.00006001
H      -21.66895212     -21.92422087      -5.58003483      -0.00001092       0.00017183       0.00001662
H      -21.54865207     -23.60426181      -6.10594362      -0.00037749      -0.00006941      -0.00016032
H      -20.12851414     -19.08829391      -6.81339571       0.00017036      -0.00025187       0.00013476
H      -24.28278712     -22.26915866      -7.84492215       0.00013686       0.00046320       0.00005345
