21
Properties=species:S:1:pos:R:3:forces:R:3 -3140.28470=T energy=-31483.786577386232 free_energy=-31483.786577386232 pbc="F F F"
S      -14.58794252      -7.57254679      -1.38970590      -0.00026084      -0.00014795       0.00042567
O      -15.61492040      -7.89623753      -0.40255293      -0.00078785      -0.00025594      -0.00005746
O      -14.99005184      -6.80951678      -2.53936516       0.00029600       0.00016350      -0.00067639
O      -13.38415782      -6.86479508      -0.62718218       0.00016886       0.00054360       0.00039452
O      -13.79968696      -8.86803676      -1.75724986       0.00022805      -0.00038224      -0.00016010
H      -13.65570089      -5.97300614      -0.34169635      -0.00010772      -0.00061907       0.00015538
H      -14.42826628      -9.55401644      -2.11849454      -0.00009521      -0.00001010      -0.00051548
C      -16.62029562     -10.91659266      -1.47281499      -0.00037721       0.00008500       0.00005627
C      -17.47347943     -12.16647013      -1.47776012      -0.00000954       0.00008082       0.00004213
C      -18.89878671     -11.98051590      -0.96650469      -0.00012696      -0.00003784       0.00017834
C      -19.69207078     -11.04171149      -1.84127623       0.00043619       0.00004244       0.00030851
O      -15.70647820     -10.76358630      -2.27246536       0.00018414       0.00011587      -0.00030247
O      -16.91816443     -10.07611867      -0.51049049      -0.00012970       0.00012977       0.00006223
O      -19.28275471     -10.52337932      -2.85317543       0.00002684      -0.00004639       0.00013077
O      -20.93946243     -10.84156618      -1.37822531       0.00023282      -0.00039148      -0.00000107
H      -17.45988533     -12.55854857      -2.49718834       0.00035615      -0.00002158       0.00018196
H      -16.94470111     -12.89516343      -0.85045006       0.00015575      -0.00000007       0.00009124
H      -18.89441965     -11.57997199       0.05325765      -0.00013039      -0.00021777      -0.00032039
H      -19.42249384     -12.94181548      -0.93573318      -0.00011661       0.00029533      -0.00001931
H      -16.32803734      -9.26501292      -0.53736223       0.00002982       0.00023832      -0.00010061
H      -21.36060456     -10.22819259      -2.00320156       0.00002780       0.00043604       0.00012534
