21
Properties=species:S:1:pos:R:3:forces:R:3 -3140.27285=T energy=-31483.398101209415 free_energy=-31483.398101209415 pbc="F F F"
S       -0.95249730       2.85891942      -0.77547768      -0.00022218      -0.00033999       0.00002391
O       -1.16825195       2.98549906      -2.20220858      -0.00005060      -0.00007744       0.00001264
O       -2.04073775       3.01241259       0.14698741      -0.00007755      -0.00002746      -0.00005984
O       -0.14741738       1.52426858      -0.48711856      -0.00003940       0.00015196      -0.00003190
O        0.18462754       3.89691094      -0.33582494       0.00046473       0.00025272      -0.00007408
H       -0.71769687       0.74674171      -0.72485104      -0.00003597      -0.00006445       0.00002511
H        0.88576907       3.88908855      -1.01100327      -0.00005839       0.00004177       0.00011794
C       -1.94118540      -1.02716866      -2.29045962      -0.00002237      -0.00003955      -0.00010490
C       -2.13348260      -0.02256881      -3.40305848      -0.00006038      -0.00006592       0.00003624
C       -3.40263288      -0.27127472      -4.21226307      -0.00001216       0.00003558      -0.00000352
C       -4.61834951      -0.27932537      -3.31939143      -0.00002003      -0.00003710      -0.00002432
O       -1.46661251      -0.78682117      -1.19733582       0.00005172       0.00011801       0.00007910
O       -2.30747796      -2.26375314      -2.63645355      -0.00006020      -0.00004083      -0.00002444
O       -4.58417165      -0.18843619      -2.11369059       0.00000509       0.00003626       0.00006245
O       -5.76744136      -0.40930611      -4.00427138      -0.00005287       0.00005792       0.00000322
H       -2.11707202       0.97979890      -2.95728512       0.00000640       0.00005459      -0.00003417
H       -1.25281007      -0.09758890      -4.05358741       0.00012105       0.00002946      -0.00001323
H       -3.35088265      -1.24272547      -4.71713932       0.00003666       0.00001597      -0.00002915
H       -3.53188272       0.49374190      -4.98433724       0.00003928      -0.00006905       0.00009341
H       -2.16240093      -2.82718986      -1.85769276       0.00001016       0.00001430      -0.00004311
H       -6.47600857      -0.41987316      -3.33900246      -0.00002300      -0.00004665      -0.00001140
