21
Properties=species:S:1:pos:R:3:forces:R:3 -3140.28000=T energy=-31483.750504557836 free_energy=-31483.750504557836 pbc="F F F"
S      -17.28668819      -7.73532939       1.27187560       0.00014262      -0.00046925      -0.00014101
O      -16.15527759      -8.67258037       1.06830002      -0.00010234       0.00013496       0.00020767
O      -18.57223610      -8.28095252       1.54308113       0.00011206       0.00018973       0.00006375
O      -16.80540205      -6.66617084       2.30668202      -0.00012273      -0.00004607       0.00009159
O      -17.34826752      -6.85769412      -0.03581809      -0.00075818      -0.00043369       0.00012273
H      -16.49299491      -7.10169313       3.15553280       0.00001143       0.00003608      -0.00011282
H      -16.55183238      -6.30318360      -0.12924065       0.00076337       0.00055761      -0.00014923
C      -15.11616639      -9.07476818       4.08925636      -0.00020884      -0.00004771       0.00007240
C      -14.39075062      -9.82564899       5.19400490      -0.00009274      -0.00004160      -0.00015831
C      -13.25565929     -10.72913731       4.72512658      -0.00017488       0.00012159      -0.00009453
C      -12.13155340      -9.94019323       4.09988770       0.00006032      -0.00000644      -0.00004792
O      -15.69665944      -8.02165109       4.34891609       0.00017324      -0.00018184      -0.00011099
O      -15.10087518      -9.67121069       2.94139613      -0.00001192       0.00025988       0.00000334
O      -12.08826650      -8.73492628       4.02380533      -0.00007622       0.00004769      -0.00000449
O      -11.14882291     -10.73171033       3.63330888       0.00024176       0.00008607      -0.00010955
H      -14.04131698      -9.07948542       5.91117599       0.00014286       0.00015379       0.00016119
H      -15.15930428     -10.42051214       5.70294941      -0.00012943       0.00005628      -0.00001001
H      -13.61820500     -11.45516547       3.98913837       0.00014416      -0.00003096      -0.00005450
H      -12.84452593     -11.29669066       5.56694726       0.00008503      -0.00015745       0.00009464
H      -15.64088900      -9.15012690       2.14745575       0.00003965      -0.00009142       0.00006853
H      -10.48340160     -10.13452885       3.25283921      -0.00023875      -0.00013668       0.00010748
