21
Properties=species:S:1:pos:R:3:forces:R:3 -3140.31067=T energy=-31483.308321578566 free_energy=-31483.308321578566 pbc="F F F"
S       -5.62602151      -1.76572548      -2.51288584       0.00007300       0.00002687      -0.00006288
O       -5.44024890      -2.80364994      -1.54530148       0.00010836      -0.00019479      -0.00013840
O       -6.93030902      -1.35483727      -2.98303992       0.00007516      -0.00014108       0.00007164
O       -4.84878845      -0.47571379      -1.96980461      -0.00011244      -0.00008322       0.00010982
O       -4.79821185      -2.09730960      -3.84751814      -0.00014354       0.00032815      -0.00010556
H       -4.84839614       0.20808322      -2.66155115      -0.00019975       0.00008635       0.00027728
H       -4.02552089      -2.63632406      -3.60858867       0.00018799       0.00011273      -0.00001051
C       -9.60324129      -1.98453561      -5.10637056      -0.00000151      -0.00020109       0.00000735
C      -10.70577154      -2.81026574      -5.74003505       0.00000596      -0.00004435      -0.00001204
C      -11.24516403      -3.94355161      -4.87662717      -0.00008541       0.00003457       0.00003320
C      -11.93616608      -3.43292950      -3.63668699      -0.00005376       0.00010490      -0.00005913
O       -9.40591250      -0.82974380      -5.40154229       0.00014838       0.00004329      -0.00016310
O       -8.85735575      -2.68560094      -4.25735667       0.00001699      -0.00008059      -0.00005662
O      -12.12551846      -2.26870145      -3.37465487       0.00011285       0.00012693      -0.00001319
O      -12.34843594      -4.43173868      -2.83458668      -0.00001971      -0.00001359       0.00007099
H      -11.49611820      -2.11362603      -6.02838912       0.00001458      -0.00001254      -0.00003996
H      -10.28525608      -3.21763467      -6.66883037      -0.00003126      -0.00008887      -0.00008072
H      -10.43538834      -4.61432599      -4.56986292      -0.00000281      -0.00007396       0.00004641
H      -11.96753984      -4.54211350      -5.44191812      -0.00013594       0.00002139       0.00003752
H       -8.14141921      -2.11806823      -3.89626963       0.00006965      -0.00008254      -0.00002780
H      -12.77391327      -4.00302819      -2.07355969      -0.00002631       0.00013049       0.00011516
