21
Properties=species:S:1:pos:R:3:forces:R:3 -3140.49399=T energy=-31483.40394743807 free_energy=-31483.40394743807 pbc="F F F"
S      -13.02220294      -7.45962708     -14.71041334       0.00025641       0.00013127      -0.00004823
O      -11.70480455      -7.23367388     -15.24573451       0.00051832      -0.00037387      -0.00014970
O      -14.13842142      -7.82777887     -15.53771759      -0.00032353      -0.00033039       0.00029950
O      -12.82100413      -8.59449001     -13.56831056       0.00016659      -0.00000107       0.00021708
O      -13.49206094      -6.22558905     -13.83518617       0.00057310       0.00029936       0.00013111
H      -13.66537033      -8.71118995     -13.10211332      -0.00040086       0.00027417       0.00058292
H      -12.72853246      -5.89474076     -13.29422462      -0.00000513      -0.00003297      -0.00061628
C      -10.30333824      -5.80443799     -12.28628204      -0.00012830      -0.00002041      -0.00007140
C      -10.11300781      -7.29005290     -12.43380867      -0.00007021       0.00015783       0.00010453
C       -8.95103224      -7.86128503     -11.63108889       0.00005662      -0.00004953      -0.00001645
C       -9.15889391      -7.67456415     -10.14789714      -0.00021350      -0.00033599      -0.00038099
O      -11.35109853      -5.21427459     -12.47432683      -0.00058052      -0.00015523      -0.00027988
O       -9.18306525      -5.14967804     -11.97350969      -0.00012362       0.00013822       0.00000438
O      -10.13416389      -7.17008506      -9.64333782      -0.00034479       0.00025155      -0.00008129
O       -8.12825551      -8.14383464      -9.42225269       0.00044382      -0.00016576       0.00003287
H      -11.05875958      -7.77086554     -12.16483623      -0.00006816      -0.00045879       0.00005445
H       -9.97821549      -7.46316640     -13.50889014       0.00006279       0.00055937      -0.00017330
H       -8.00686382      -7.38029795     -11.90792799       0.00011265       0.00002056      -0.00013961
H       -8.84248873      -8.93296120     -11.82918815       0.00005692      -0.00010289       0.00007054
H       -9.41309630      -4.20741126     -11.90477188       0.00019355       0.00028221       0.00070657
H       -8.35558715      -7.97021807      -8.49354404      -0.00018254      -0.00008788      -0.00024659
