21
Properties=species:S:1:pos:R:3:forces:R:3 -3140.33827=T energy=-31483.22521495264 free_energy=-31483.22521495264 pbc="F F F"
S      -12.40251922      -2.25629603      -8.25703801      -0.00001982      -0.00015585      -0.00002003
O      -12.15991842      -0.89092384      -7.88663534       0.00007755       0.00036931       0.00007337
O      -13.65176546      -2.66596120      -8.85160038      -0.00014901      -0.00006866      -0.00009716
O      -11.17368081      -2.72956549      -9.16160491       0.00014824       0.00011386       0.00003067
O      -12.09714675      -3.22866925      -7.00520085       0.00009965      -0.00005260      -0.00002977
H      -11.26627288      -3.67962954      -9.34578308      -0.00001369      -0.00015464      -0.00000228
H      -12.85692235      -3.18979417      -6.39842936      -0.00010328      -0.00001792       0.00000291
C      -12.18519915      -1.36074953     -13.23405616       0.00012445       0.00006619      -0.00010388
C      -12.51653022      -1.09049496     -11.78556110      -0.00013781       0.00003046       0.00007844
C      -11.66179945      -0.01264791     -11.13630592      -0.00006354      -0.00006199      -0.00002491
C      -11.79399008       1.30987303     -11.84815983      -0.00003010      -0.00004172       0.00008404
O      -12.96400184      -1.78024546     -14.05098748       0.00000627      -0.00001915       0.00008699
O      -10.88518751      -1.13504170     -13.51037848      -0.00014436      -0.00002050       0.00013745
O      -12.54469416       1.53042824     -12.76841357      -0.00001896      -0.00001297      -0.00002828
O      -10.97477223       2.24416057     -11.33770027       0.00002348       0.00001425      -0.00002944
H      -13.58085609      -0.84223002     -11.74620439       0.00002980       0.00003486       0.00002804
H      -12.38977418      -2.04017627     -11.25291122       0.00004682      -0.00003035      -0.00005539
H      -10.60356796      -0.29513502     -11.14156954      -0.00000918      -0.00002220       0.00006343
H      -11.94950661       0.12979064     -10.08734430       0.00006112      -0.00005008      -0.00005117
H      -10.77284985      -1.33682863     -14.45409197       0.00004276      -0.00001080      -0.00011576
H      -11.12583413       3.04746250     -11.86305076       0.00002944       0.00009046      -0.00002699
