21
Properties=species:S:1:pos:R:3:forces:R:3 -3140.30110=T energy=-31483.311206983137 free_energy=-31483.311206983137 pbc="F F F"
S      -21.42086938     -12.82722199      -5.77209385      -0.00035134       0.00007884      -0.00021653
O      -22.72161465     -12.83115524      -6.36876390       0.00027049       0.00016910       0.00000691
O      -20.43758136     -13.85659794      -6.02558617       0.00008929       0.00038028       0.00019518
O      -20.76270247     -11.40301025      -6.09096813      -0.00078540      -0.00048460       0.00011691
O      -21.54572827     -12.76832372      -4.17304762       0.00050819      -0.00020491      -0.00014392
H      -19.93231094     -11.32007157      -5.59115056       0.00046868      -0.00006920       0.00005801
H      -22.37896385     -12.32449977      -3.94193596      -0.00018595       0.00007470      -0.00008280
C      -20.25045863     -17.34228942      -6.40425105       0.00002486       0.00001022       0.00011623
C      -19.96834011     -18.74401496      -5.89874008       0.00017172      -0.00016975      -0.00011551
C      -20.45448810     -19.03327252      -4.48428675       0.00001061       0.00013369       0.00022495
C      -21.95848512     -18.98085942      -4.37926153       0.00020862      -0.00005805       0.00041869
O      -20.38244210     -17.09023533      -7.57865887       0.00006109       0.00000261      -0.00036823
O      -20.26853338     -16.43705283      -5.42993726       0.00007589       0.00010648       0.00018382
O      -22.71549743     -18.81067098      -5.30549196      -0.00008911       0.00001970      -0.00063477
O      -22.38840914     -19.16407202      -3.11731191      -0.00045967       0.00008455       0.00032651
H      -20.40535373     -19.43491619      -6.62310155       0.00011282       0.00030743       0.00044238
H      -18.87933471     -18.87264662      -5.95205630      -0.00049126       0.00010312      -0.00009023
H      -20.03309602     -18.31155186      -3.77616737      -0.00011448      -0.00029711      -0.00035273
H      -20.12950840     -20.02970824      -4.16627258      -0.00006869      -0.00000724      -0.00003667
H      -20.42024137     -15.54257256      -5.80614762      -0.00003690      -0.00015937       0.00006803
H      -23.35779467     -19.11143746      -3.15650774       0.00058069      -0.00002060      -0.00011653
