21
Properties=species:S:1:pos:R:3:forces:R:3 -3140.32959=T energy=-31483.311206983137 free_energy=-31483.311206983137 pbc="F F F"
S      -13.25175244     -10.56232980     -25.90341159      -0.00038008      -0.00024064      -0.00004298
O      -14.69483178     -10.65072371     -25.92507302       0.00015533       0.00003749       0.00011623
O      -12.49572131      -9.93649442     -26.94488932       0.00023216       0.00035596      -0.00032401
O      -12.90631991      -9.88946057     -24.48783793      -0.00008203      -0.00003881       0.00030479
O      -12.65310772     -12.03438749     -25.70890325       0.00008442      -0.00020602       0.00004698
H      -12.00237839      -9.53415161     -24.52425590       0.00001226      -0.00000586      -0.00013559
H      -13.06031513     -12.43962226     -24.92389975      -0.00005225       0.00011955       0.00007532
C      -17.48311731      -8.69011263     -26.76638680       0.00005742      -0.00011350      -0.00018478
C      -18.64576962      -7.77679917     -26.42867632      -0.00004029       0.00010490       0.00009811
C      -18.35058552      -6.71205794     -25.37992801       0.00009076       0.00000584      -0.00005543
C      -17.32354189      -5.71525758     -25.85672683      -0.00007677      -0.00006640       0.00024211
O      -17.37304258      -9.22988743     -27.84189835       0.00006303       0.00020475       0.00034767
O      -16.65650019      -8.87282048     -25.74052793      -0.00008583      -0.00012046      -0.00017023
O      -16.83599340      -5.69280223     -26.96204975       0.00011376      -0.00004081      -0.00032716
O      -17.00594166      -4.81622387     -24.90710418      -0.00000331       0.00005859       0.00010490
H      -18.98202421      -7.33298004     -27.36832877      -0.00000423       0.00001811      -0.00006125
H      -19.45422012      -8.43144800     -26.07779247      -0.00011264      -0.00005309       0.00002468
H      -17.98343415      -7.17169333     -24.45592672      -0.00000933       0.00005987      -0.00001915
H      -19.26336086      -6.16091617     -25.12947757      -0.00001949      -0.00017640       0.00001501
H      -15.94027637      -9.49530815     -25.99388343       0.00000777       0.00003769      -0.00002153
H      -16.34484304      -4.22809777     -25.30841091       0.00004967       0.00005990      -0.00003331
