21
Properties=species:S:1:pos:R:3:forces:R:3 -3140.32168=T energy=-31483.513258289742 free_energy=-31483.513258289742 pbc="F F F"
S        1.49608933       1.90010198      26.12610419      -0.00021110      -0.00004049      -0.00037861
O        2.46384623       1.12612577      25.41115994       0.00009608       0.00050998       0.00054729
O        1.73971638       3.31202189      26.39260562      -0.00036067      -0.00031018       0.00004613
O        0.09349887       1.74707728      25.38595728       0.00032578       0.00022890       0.00018506
O        1.08879026       1.20643766      27.50875594       0.00014336      -0.00024275       0.00034434
H       -0.60261235       2.11922303      25.95518473       0.00060087       0.00030393      -0.00072812
H        1.75418447       1.45122423      28.18702507      -0.00039029      -0.00013968       0.00004612
C        3.75333990       5.94936654      31.95243549      -0.00011555      -0.00007851      -0.00012978
C        4.53049143       4.67393974      31.72334811       0.00005162      -0.00003862      -0.00001845
C        3.77084791       3.61002932      30.93997136       0.00000054      -0.00000501      -0.00012690
C        3.39319246       4.09553420      29.55977420      -0.00037146      -0.00000858       0.00005841
O        4.24105792       7.04412777      32.07690722       0.00020850       0.00004337       0.00030161
O        2.42694226       5.72696969      32.07078373       0.00007844       0.00007534      -0.00043952
O        3.67660040       5.19091832      29.13128779      -0.00069343      -0.00011590       0.00025166
O        2.71891948       3.18570034      28.85317754      -0.00026304      -0.00005269       0.00041298
H        5.46095357       4.95514209      31.22471054       0.00016084       0.00024500      -0.00008866
H        4.80170349       4.28845413      32.71456294       0.00011665      -0.00013768      -0.00011764
H        2.85507576       3.32308875      31.46922821       0.00020015      -0.00031907       0.00029570
H        4.38101363       2.70580525      30.83439112       0.00044391       0.00005384      -0.00009501
H        2.02430433       6.59856335      32.21881827       0.00022947       0.00016533      -0.00036210
H        2.49907038       3.57025900      27.97000463      -0.00025077      -0.00013640      -0.00000462
