21
Properties=species:S:1:pos:R:3:forces:R:3 -3140.38753=T energy=-31483.32827166152 free_energy=-31483.32827166152 pbc="F F F"
S        3.36564389       1.42836462      25.72179998       0.00037841       0.00025460       0.00036912
O        4.43796469       1.92343984      24.90285567      -0.00010967      -0.00000256       0.00008023
O        2.20573870       0.77534018      25.17468861      -0.00003850      -0.00000590       0.00019987
O        4.07327452       0.43724659      26.78351751      -0.00003743       0.00044285      -0.00056657
O        2.83825843       2.57424183      26.69698987       0.00017937      -0.00028096      -0.00031070
H        3.38338788       0.07095376      27.36248974      -0.00031652      -0.00032102       0.00027501
H        3.61047230       3.01201376      27.14840944      -0.00013573      -0.00017267      -0.00006767
C        5.83004998       6.54320888      28.88798580      -0.00017162       0.00031868      -0.00013401
C        4.99483556       6.18664887      30.09602729       0.00004506       0.00012255      -0.00010777
C        3.51108075       5.99437856      29.80516788       0.00006163      -0.00008842       0.00004554
C        3.26945426       4.88396353      28.82049742      -0.00000166       0.00015330       0.00002742
O        7.01077088       6.32845278      28.77972920       0.00020996      -0.00012671      -0.00003788
O        5.11828937       7.18897881      27.94026388       0.00013149      -0.00017035       0.00010902
O        4.16416232       4.20399549      28.34098288       0.00012104      -0.00016195      -0.00015500
O        1.98352116       4.71322209      28.53306041       0.00002337       0.00004309      -0.00011858
H        5.43764566       5.28659971      30.52887293       0.00004887      -0.00015588       0.00000462
H        5.13613143       6.99429582      30.82509058       0.00005635       0.00011292       0.00007187
H        3.06997626       6.90997782      29.39688041      -0.00020798       0.00008122      -0.00019887
H        2.96540426       5.75544396      30.72438210      -0.00006498       0.00009032       0.00023511
H        5.73964215       7.36220255      27.21392504      -0.00012853       0.00000258       0.00026257
H        1.90942578       3.98464359      27.88101461      -0.00004330      -0.00013591       0.00001620
