21
Properties=species:S:1:pos:R:3:forces:R:3 -3140.23495=T energy=-31483.33887337427 free_energy=-31483.33887337427 pbc="F F F"
S       -6.24851897      10.26247823      21.70537225       0.00046719      -0.00031341       0.00048626
O       -4.89115920      10.58673846      22.07472603      -0.00065136      -0.00031265      -0.00001884
O       -7.08356813      11.26607691      21.09861323      -0.00038207       0.00003105      -0.00004381
O       -6.27438114       8.90666035      20.85064651      -0.00006720       0.00035059      -0.00036411
O       -7.01221922       9.57587318      22.93684199       0.00015964       0.00021219      -0.00030315
H       -5.74490936       9.01314953      20.04065465       0.00018053      -0.00013599       0.00047016
H       -7.19211737      10.24217502      23.62348412       0.00052572      -0.00030884       0.00002403
C       -2.39775955       7.11240129      22.30797778       0.00013552      -0.00004357       0.00011150
C       -3.42889653       7.82817122      23.14723009       0.00002217       0.00005054      -0.00011325
C       -4.80632448       7.18444762      23.12519036      -0.00009143      -0.00006819      -0.00015362
C       -4.78372061       5.78295937      23.67895317      -0.00028133      -0.00002646      -0.00025797
O       -1.21411762       7.09874660      22.52826290      -0.00038621      -0.00022902       0.00030822
O       -2.94609335       6.52557513      21.22403325       0.00034797       0.00026232      -0.00006586
O       -3.82004122       5.24721333      24.17234658       0.00041791      -0.00018410      -0.00031882
O       -5.97713090       5.17757955      23.56988453      -0.00031054       0.00021300       0.00040340
H       -3.02641930       7.89357281      24.16091429      -0.00013230       0.00014514      -0.00001335
H       -3.49456501       8.85180298      22.75245693      -0.00003379       0.00000317      -0.00017290
H       -5.19440186       7.14430886      22.10357160       0.00006587      -0.00008545      -0.00013069
H       -5.52229311       7.77745771      23.70514405       0.00002231      -0.00005236      -0.00009009
H       -2.21184898       6.10477554      20.74674406       0.00015100       0.00020247      -0.00012593
H       -5.86313451       4.28749263      23.94294284      -0.00015913       0.00028943       0.00036862
