21
Properties=species:S:1:pos:R:3:forces:R:3 -3140.38375=T energy=-31483.553724507477 free_energy=-31483.553724507477 pbc="F F F"
S        3.56724651       1.63149375      25.28271096       0.00022553       0.00041774      -0.00011850
O        4.49754756       1.40828018      24.20781143      -0.00063086       0.00049496       0.00050604
O        2.31241585       0.92856402      25.35052085       0.00022686       0.00046134      -0.00016284
O        4.39362799       1.42078461      26.62602162      -0.00002855      -0.00006954       0.00004071
O        3.19545501       3.18337335      25.36660373       0.00017926       0.00019661       0.00016793
H        3.90363983       1.80833571      27.39347160       0.00030738      -0.00008830       0.00015261
H        3.98595106       3.70887587      25.63959819      -0.00007076      -0.00011077       0.00016687
C        3.37745977       3.98490518      28.97785572      -0.00064385      -0.00049820      -0.00048913
C        2.46993419       4.81313865      28.09568822      -0.00025296       0.00070882      -0.00015807
C        3.06670717       6.18185388      27.77607908       0.00000036      -0.00008571      -0.00016344
C        4.38635749       6.05413082      27.06385649      -0.00014114      -0.00031048       0.00018907
O        3.61660244       2.80120121      28.84563378       0.00028531      -0.00001037       0.00042366
O        3.90351648       4.69465837      29.98216212      -0.00021572      -0.00071585      -0.00034320
O        4.81336671       5.02598253      26.56928763       0.00029420       0.00044319       0.00041980
O        5.07139620       7.19491927      27.00981646      -0.00011874      -0.00026369      -0.00011325
H        2.27899914       4.23996015      27.18453906      -0.00013180      -0.00025318       0.00031392
H        1.52119191       4.93653965      28.62932497       0.00024906      -0.00001980      -0.00028278
H        3.22334451       6.76330678      28.68806073      -0.00014971       0.00017961      -0.00046320
H        2.39135534       6.75278284      27.13039262       0.00071888      -0.00039873       0.00008361
H        4.46397281       4.08375441      30.49006643       0.00028073       0.00001632       0.00059764
H        5.90157271       6.99571538      26.54472987      -0.00038385      -0.00009341      -0.00076737
