21
Properties=species:S:1:pos:R:3:forces:R:3 -3140.41970=T energy=-31483.438435645745 free_energy=-31483.438435645745 pbc="F F F"
S       -1.10733295       3.90092961      -2.37870400       0.00024088       0.00007052      -0.00000795
O       -0.75822305       3.03111462      -1.27555028      -0.00029206       0.00044107       0.00019145
O       -0.89037110       3.48866029      -3.73910093       0.00033471      -0.00015041       0.00046515
O       -2.58681725       4.42919947      -2.18398008       0.00008294       0.00024068      -0.00007015
O       -0.34252640       5.29470517      -2.18971044       0.00002998      -0.00032490       0.00074154
H       -3.20737199       3.65746426      -2.24801534       0.00005491       0.00013478       0.00007255
H       -0.31042274       5.49424006      -1.23800124      -0.00045030       0.00037109      -0.00039426
C       -3.98632389       1.13999325      -2.33984901      -0.00000729       0.00036725       0.00014221
C       -2.61934351       0.70977593      -2.80191321      -0.00001454      -0.00003505      -0.00029075
C       -2.53328604      -0.73409987      -3.27668605      -0.00008304      -0.00000572      -0.00018400
C       -3.40102555      -0.96568449      -4.49036573      -0.00017607      -0.00039988      -0.00009727
O       -4.34625086       2.29880957      -2.24249896       0.00019247      -0.00073000      -0.00020959
O       -4.78264879       0.12977064      -1.98578374       0.00024687       0.00049937       0.00008596
O       -4.04930350      -0.11371547      -5.05055233      -0.00034794       0.00006710      -0.00018114
O       -3.37449519      -2.24559400      -4.90367559      -0.00004607      -0.00020766      -0.00014600
H       -2.31040739       1.40560648      -3.59048301      -0.00015998      -0.00017589      -0.00013267
H       -1.94343665       0.89864667      -1.95716244       0.00024477      -0.00005746      -0.00042643
H       -2.84788501      -1.42970388      -2.49164969      -0.00007056       0.00005377       0.00008564
H       -1.50106424      -0.98609663      -3.54239496      -0.00004162      -0.00013883      -0.00012501
H       -5.63259697       0.51639555      -1.71482926       0.00022727       0.00003052       0.00024512
H       -3.96531864      -2.28797872      -5.67400891       0.00003501      -0.00005019       0.00023546
