21
Properties=species:S:1:pos:R:3:forces:R:3 -3140.35967=T energy=-31483.425136266243 free_energy=-31483.425136266243 pbc="F F F"
S        1.36876422     -13.73068008      11.87318602      -0.00006195      -0.00019702      -0.00004881
O        1.78403107     -15.05313354      11.45514133       0.00016034      -0.00003564      -0.00016008
O        1.29124736     -12.63302764      10.95532604      -0.00051877       0.00003457       0.00027305
O       -0.05189854     -13.97379124      12.57770116      -0.00015944      -0.00007746       0.00001898
O        2.26694956     -13.25382978      13.10382556       0.00003886      -0.00003086      -0.00011645
H       -0.43082938     -13.11253353      12.81968476       0.00079468       0.00017023       0.00010837
H        2.50702187     -14.03864944      13.64014607       0.00023795       0.00001783       0.00008772
C        3.68433410     -17.22341599      13.67733546       0.00020095      -0.00031566      -0.00039952
C        4.32547034     -17.36955569      15.04029434       0.00003290       0.00002383      -0.00024104
C        3.52717676     -16.79017979      16.20240462      -0.00021744       0.00022149      -0.00030816
C        2.20161781     -17.48532614      16.38835450      -0.00002241       0.00026011      -0.00036006
O        3.83194353     -18.01242503      12.77954223      -0.00025474       0.00024164      -0.00049185
O        2.99023635     -16.08033121      13.54061205       0.00002414      -0.00016463       0.00037813
O        1.80634526     -18.41874882      15.73095266       0.00026351      -0.00000176       0.00023172
O        1.48560832     -16.95678891      17.39816097       0.00018716      -0.00044155      -0.00002432
H        4.52410235     -18.43435457      15.17915989       0.00024240       0.00020536       0.00084555
H        5.29935925     -16.86792271      14.97467488      -0.00005591      -0.00001436      -0.00025898
H        3.33516107     -15.72322646      16.04297871      -0.00044709       0.00026702       0.00046057
H        4.09266798     -16.87927752      17.13576919      -0.00032705      -0.00013414      -0.00025751
H        2.61768705     -16.05635086      12.62865343       0.00000712      -0.00032577       0.00046082
H        0.65928615     -17.46680045      17.43351438      -0.00012554       0.00029637      -0.00019793
