21
Properties=species:S:1:pos:R:3:forces:R:3 -3140.30071=T energy=-31483.351842692035 free_energy=-31483.351842692035 pbc="F F F"
S        7.31036614      -8.99105610      17.76345137      -0.00034482       0.00008414       0.00049959
O        8.23221045     -10.01910967      17.35270588       0.00026298      -0.00020313      -0.00015604
O        5.89260607      -9.20216112      17.56763468      -0.00006413       0.00017083      -0.00024873
O        7.59615636      -8.51629372      19.24720369      -0.00054851      -0.00034431      -0.00002310
O        7.73565801      -7.58807856      17.11716774       0.00029534       0.00024691      -0.00069270
H        7.14992952      -9.13025493      19.87054097       0.00002367       0.00058539      -0.00034039
H        7.61665595      -7.63457230      16.15152274      -0.00061968      -0.00017043       0.00057560
C        3.75667971      -5.58300633      21.59301382      -0.00021476       0.00010810      -0.00024191
C        3.72642942      -6.29955325      20.26269532       0.00019017       0.00010860      -0.00022745
C        4.79792315      -7.37267743      20.10325428       0.00008714      -0.00019634       0.00002754
C        4.64874091      -8.47182015      21.12022010      -0.00020546      -0.00045156       0.00036669
O        2.80299264      -5.07808986      22.12925445      -0.00047863      -0.00012389      -0.00013518
O        5.00231001      -5.51312127      22.10786020       0.00027895       0.00019372       0.00049862
O        3.74754219      -8.58588202      21.91067179       0.00030990      -0.00001487      -0.00008947
O        5.66276556      -9.37638868      21.06215899      -0.00025189      -0.00002447       0.00044143
H        2.71980510      -6.70741011      20.14371934       0.00024536       0.00030730      -0.00028595
H        3.85543858      -5.53165982      19.48976370       0.00024313       0.00001812       0.00023360
H        5.79759465      -6.93414334      20.19977449       0.00036754      -0.00001831       0.00010282
H        4.74936555      -7.82711937      19.10543488       0.00047250      -0.00018656       0.00012884
H        4.91667221      -5.03284093      22.94803393      -0.00021982      -0.00016879      -0.00023181
H        5.46595715     -10.04172700      21.74531429       0.00017057       0.00007943      -0.00020152
