21
Properties=species:S:1:pos:R:3:forces:R:3 -3140.21744=T energy=-31483.49284109239 free_energy=-31483.49284109239 pbc="F F F"
S      -17.21368258     -18.58187302      -5.43986934       0.00003716      -0.00002402      -0.00000400
O      -16.32458415     -19.71442972      -5.53048269      -0.00001061       0.00015116      -0.00001627
O      -17.34345216     -17.71311592      -6.58144762       0.00005126      -0.00007200       0.00001192
O      -18.62142011     -19.03889655      -4.88398728      -0.00016680      -0.00000599      -0.00006473
O      -16.85418634     -17.71949459      -4.13679085       0.00016329       0.00005913      -0.00009611
H      -18.91470131     -19.85373052      -5.36234415       0.00007098      -0.00001501       0.00008066
H      -15.99123132     -17.28481991      -4.26303700      -0.00010510      -0.00003443       0.00009205
C      -19.07104934     -22.51811356      -3.21175513      -0.00062737       0.00019264       0.00019898
C      -17.72059038     -21.83946457      -3.25788436       0.00003290      -0.00007415      -0.00014010
C      -16.82937178     -22.29201287      -4.40684984       0.00007653      -0.00010657       0.00005746
C      -17.44519365     -21.99508450      -5.74588505      -0.00016677       0.00021446       0.00014377
O      -20.06750708     -22.03623862      -2.73674435       0.00069405      -0.00037272      -0.00031530
O      -19.03236759     -23.76922799      -3.71405922      -0.00003636       0.00024855       0.00009811
O      -18.59703729     -21.62501225      -5.90949380       0.00019613      -0.00010540       0.00001073
O      -16.60565235     -22.17879873      -6.75614968      -0.00008404      -0.00000733      -0.00006258
H      -17.90115019     -20.76056316      -3.28833632       0.00006732       0.00000641       0.00004352
H      -17.23021286     -22.05171797      -2.30028563       0.00003143       0.00002371       0.00003333
H      -16.64856768     -23.37209825      -4.34990834      -0.00011642       0.00007525       0.00003557
H      -15.86688640     -21.77791609      -4.36913945      -0.00021017       0.00000086      -0.00013102
H      -19.94027699     -24.10854551      -3.65047827      -0.00001185      -0.00011871      -0.00000541
H      -17.05294941     -21.83649336      -7.54770143       0.00011486      -0.00003597       0.00002941
