21
Properties=species:S:1:pos:R:3:forces:R:3 -3140.32141=T energy=-31483.736856869942 free_energy=-31483.736856869942 pbc="F F F"
S       -3.44237898     -18.56702851      10.71858365       0.00028642      -0.00006153       0.00021990
O       -2.26726187     -19.09721885      10.10003878      -0.00072718       0.00050557       0.00033629
O       -4.19309384     -17.50955839      10.04432078       0.00035262       0.00026149      -0.00031481
O       -4.44309397     -19.76959114      11.00772740      -0.00013236      -0.00026301       0.00042329
O       -3.19011372     -18.09999857      12.20495897       0.00000870      -0.00046140      -0.00045392
H       -5.14688925     -19.46288518      11.60543536       0.00017350      -0.00003126      -0.00015916
H       -2.70072728     -17.23255153      12.19018081       0.00007192      -0.00001594      -0.00014937
C       -2.76308306     -14.73276668      11.27925512       0.00004690       0.00051969      -0.00026897
C       -2.43599210     -13.25731361      11.35381811       0.00025123       0.00012589       0.00006340
C       -3.57163568     -12.32335276      10.94676525      -0.00005770       0.00016570       0.00003487
C       -4.76146637     -12.45276985      11.86496464       0.00004077      -0.00011623       0.00032926
O       -2.22475295     -15.54691650      12.01712941       0.00024784      -0.00029171       0.00065815
O       -3.61090401     -15.03904261      10.32468211      -0.00026274      -0.00012815      -0.00033784
O       -4.81512425     -13.17381542      12.83332359       0.00005740       0.00024390      -0.00036385
O       -5.78198702     -11.65711907      11.49690797       0.00008261      -0.00003552      -0.00009215
H       -2.09514251     -13.05684017      12.37197051      -0.00011013      -0.00011407      -0.00018234
H       -1.57292678     -13.10423554      10.69349221      -0.00012425       0.00002439       0.00013736
H       -3.90115221     -12.53934779       9.92439603      -0.00010911      -0.00006105      -0.00019225
H       -3.23635962     -11.28101699      10.96666104       0.00008401      -0.00039192       0.00009389
H       -3.76699562     -16.02680949      10.28451993       0.00000212       0.00012365       0.00008158
H       -6.49065272     -11.81671741      12.14230041      -0.00018323       0.00000178       0.00013666
