21
Properties=species:S:1:pos:R:3:forces:R:3 -3140.31535=T energy=-31483.553718425257 free_energy=-31483.553718425257 pbc="F F F"
S      -15.89767696      -7.99255371      -5.83831800       0.00006435      -0.00011679       0.00009537
O      -14.97434083      -9.00168514      -6.28821581      -0.00003123      -0.00019860      -0.00036168
O      -16.54851257      -7.10240294      -6.76279729       0.00003898       0.00033092       0.00013399
O      -16.99138861      -8.76795623      -4.96871185       0.00006546      -0.00015056       0.00025237
O      -15.21173854      -7.06161695      -4.74536690       0.00012833       0.00057297      -0.00003595
H      -17.46458828      -8.13648590      -4.37472131       0.00000637      -0.00003831       0.00042075
H      -14.97340122      -7.59212237      -3.94467976       0.00023405       0.00007378       0.00004834
C      -15.69688912      -8.60276849      -1.50023746      -0.00013432      -0.00084608      -0.00005524
C      -16.60129571      -9.75249640      -1.88506774      -0.00078952      -0.00059366      -0.00003004
C      -18.02071003      -9.57406244      -1.35101813      -0.00025034       0.00027928       0.00003046
C      -18.65096676      -8.31201435      -1.87529157      -0.00081325      -0.00012851      -0.00039220
O      -14.89210388      -8.05280721      -2.22528441      -0.00004486      -0.00041987       0.00040357
O      -15.84756439      -8.23780048      -0.22228851       0.00018615       0.00013945      -0.00005734
O      -18.21477213      -7.64844493      -2.79910882       0.00013021       0.00087588      -0.00009582
O      -19.76515147      -7.96944577      -1.23131453      -0.00058746       0.00003228       0.00012636
H      -16.59361427      -9.83043275      -2.97548916      -0.00025612      -0.00041340       0.00007855
H      -16.16067075     -10.66637610      -1.47189300       0.00065837       0.00024981       0.00011130
H      -18.02613955      -9.53289575      -0.25897498       0.00064736       0.00023794       0.00007029
H      -18.65276539     -10.41511547      -1.65450764       0.00082516      -0.00033686      -0.00000550
H      -15.23086778      -7.50196334      -0.06898394       0.00065325       0.00026205      -0.00033705
H      -20.07638899      -7.14399213      -1.63988365      -0.00073113       0.00018903      -0.00040040
