21
Properties=species:S:1:pos:R:3:forces:R:3 -3140.35075=T energy=-31483.277494461097 free_energy=-31483.277494461097 pbc="F F F"
S      -20.17616550     -10.08701931     -16.72575514      -0.00009518      -0.00029783       0.00015865
O      -21.36736947     -10.42163279     -17.45619089      -0.00002456       0.00016564       0.00021046
O      -19.10255552      -9.30944640     -17.28163585      -0.00002003      -0.00003302      -0.00005117
O      -20.66398034      -9.42283098     -15.34861925       0.00065050      -0.00001152       0.00019795
O      -19.49388353     -11.44672658     -16.18950362      -0.00071545      -0.00020939      -0.00006917
H      -19.88894602      -8.99100569     -14.93152646      -0.00006093      -0.00044367      -0.00009665
H      -20.19198288     -12.11406057     -16.07279134       0.00002905      -0.00001664      -0.00045010
C      -17.57472818      -7.09260753     -15.94174305       0.00020745       0.00021724       0.00013762
C      -18.53347173      -6.39342450     -16.87124792       0.00020266      -0.00005436       0.00000083
C      -19.89585175      -6.07172476     -16.27599302      -0.00007975      -0.00010517       0.00010297
C      -19.78136969      -5.16042105     -15.07769465       0.00001305       0.00026894      -0.00009108
O      -16.37979898      -7.09210936     -16.07621360      -0.00015707       0.00023986       0.00017001
O      -18.18223361      -7.78589329     -14.93933205      -0.00001538       0.00013402      -0.00023335
O      -18.75391928      -4.66180858     -14.68445361      -0.00017362       0.00003632      -0.00001536
O      -20.96943467      -4.94549049     -14.48789865       0.00011623       0.00003824      -0.00009684
H      -18.02393029      -5.48748596     -17.21016012      -0.00004992      -0.00008614      -0.00004696
H      -18.64604953      -7.06141573     -17.73168780      -0.00004341       0.00005279       0.00012153
H      -20.43019810      -6.98063633     -15.97470558      -0.00010508      -0.00000437       0.00002022
H      -20.52481132      -5.57266701     -17.02133942       0.00006047       0.00001155      -0.00002691
H      -17.45814010      -8.20827531     -14.44069069       0.00031584       0.00009516       0.00021196
H      -20.78987673      -4.36258213     -13.73142032      -0.00005398       0.00000223      -0.00015482
