21
Properties=species:S:1:pos:R:3:forces:R:3 -3140.35749=T energy=-31483.188681903026 free_energy=-31483.188681903026 pbc="F F F"
S        3.55539770      10.93860459      30.39805959      -0.00034490       0.00034753      -0.00001888
O        4.77554549      11.03434340      29.64711806      -0.00042593      -0.00012922       0.00020140
O        2.25904921      11.27648683      29.87442700       0.00070417      -0.00038335       0.00021211
O        3.49556638       9.43734892      30.97890193      -0.00003508       0.00000080      -0.00012709
O        3.70821976      11.78123606      31.76690461       0.00013737       0.00000581      -0.00005044
H        2.56805667       9.23285858      31.18717835       0.00001067       0.00013080      -0.00015271
H        4.59485813      11.61749356      32.13095670      -0.00004055      -0.00005916      -0.00003207
C        4.72031950      15.89915798      30.14308649       0.00024931       0.00024535       0.00002290
C        4.17350408      14.51944218      29.86749535      -0.00014377       0.00015068      -0.00003123
C        2.80979203      14.51160654      29.19343577      -0.00021648      -0.00000535       0.00006390
C        2.82856807      15.24401440      27.87559600      -0.00001758       0.00003219       0.00001168
O        5.88997154      16.17733642      30.20922300      -0.00041237      -0.00013978      -0.00004438
O        3.74071664      16.79724778      30.37147061       0.00017762      -0.00005004       0.00001919
O        3.80975255      15.72899176      27.36466841      -0.00004191       0.00002444       0.00003231
O        1.61103904      15.30222960      27.31036452       0.00004375      -0.00011951       0.00010855
H        4.92397013      13.99557604      29.26938090       0.00018019      -0.00002173      -0.00014340
H        4.11856797      14.00102794      30.83424553      -0.00005196      -0.00001779       0.00010736
H        2.05738398      14.98516412      29.83331987       0.00017297      -0.00009337      -0.00011881
H        2.47581569      13.48134462      29.01770292       0.00000781       0.00010487       0.00001609
H        4.18775586      17.64407964      30.53531748       0.00001688      -0.00000393       0.00003581
H        1.72530853      15.79726343      26.48211895       0.00003021      -0.00001912      -0.00011210
