21
Properties=species:S:1:pos:R:3:forces:R:3 -3140.33017=T energy=-31483.31035425607 free_energy=-31483.31035425607 pbc="F F F"
S      -10.30423238      -2.09223839     -16.36662397       0.00012346      -0.00029980       0.00011478
O       -9.81903130      -3.20487539     -17.15256320       0.00005323      -0.00034797      -0.00001001
O      -10.89394950      -0.92647327     -16.95075535       0.00002164       0.00037587      -0.00049990
O      -11.31346765      -2.75249996     -15.30774550       0.00005885      -0.00005609      -0.00027448
O       -9.12294748      -1.59099129     -15.40941492       0.00037104      -0.00005433       0.00019205
H      -11.88745516      -2.05550844     -14.94803266      -0.00030909       0.00044974      -0.00035453
H       -8.78292455      -2.34924592     -14.90376427      -0.00064133      -0.00021039       0.00065408
C      -10.44717788      -5.15664504     -19.95358986       0.00016231      -0.00004280      -0.00009442
C      -11.10666342      -6.28492393     -20.72233936       0.00022161      -0.00023317       0.00001061
C      -12.59953616      -6.45484755     -20.47065835      -0.00029743      -0.00007957       0.00007516
C      -13.39551542      -5.26721467     -20.95186888      -0.00040984       0.00006557       0.00014901
O       -9.46727699      -4.57912762     -20.36119126       0.00006712       0.00031521      -0.00030000
O      -11.02286256      -4.93009600     -18.77639824      -0.00030637       0.00017160      -0.00037289
O      -12.93921841      -4.31486997     -21.53902085      -0.00054149      -0.00019647      -0.00001696
O      -14.70609387      -5.38322176     -20.66917668       0.00024414       0.00042605       0.00081712
H      -10.89420302      -6.11328232     -21.77991296       0.00028347       0.00005613       0.00012717
H      -10.57454307      -7.20116483     -20.43445078       0.00012678      -0.00019656      -0.00081657
H      -12.79720601      -6.59370389     -19.40222101      -0.00055920       0.00016979      -0.00019004
H      -12.97448208      -7.34359466     -20.98949083       0.00078384      -0.00015903       0.00022350
H      -10.54014211      -4.21766465     -18.30196271       0.00016952      -0.00009434       0.00026611
H      -15.12485011      -4.57743066     -21.01463865       0.00037798      -0.00005914       0.00030040
