21
Properties=species:S:1:pos:R:3:forces:R:3 -3140.36813=T energy=-31483.29178118744 free_energy=-31483.29178118744 pbc="F F F"
S      -25.27072165     -10.35376267     -19.14944748       0.00003404       0.00001088       0.00015497
O      -24.18704283     -10.40115052     -20.09502465       0.00006461       0.00000229      -0.00004113
O      -26.65053605     -10.36958888     -19.54579657      -0.00016797       0.00007618      -0.00012052
O      -24.99388600     -11.58041355     -18.12893400       0.00016806       0.00000650      -0.00003159
O      -25.10802854      -9.10721136     -18.16674448      -0.00013095      -0.00009492      -0.00007813
H      -25.64133505     -11.52907271     -17.40629273      -0.00008252      -0.00000791       0.00009364
H      -24.17932468      -9.06761822     -17.84756694       0.00010823      -0.00000188       0.00002942
C      -20.18411577     -12.87762816     -16.69313895      -0.00003405       0.00010666      -0.00023350
C      -20.65799527     -12.34830637     -18.02760256       0.00009453       0.00008368      -0.00004172
C      -21.77801548     -11.32023059     -17.93178702       0.00008881      -0.00000578       0.00015141
C      -21.37054861     -10.11261620     -17.13201040      -0.00012219       0.00005698      -0.00009084
O      -19.07933685     -13.30620485     -16.47441637       0.00011797      -0.00005021      -0.00005843
O      -21.16151075     -12.87486806     -15.76341683      -0.00021052       0.00005335       0.00012457
O      -20.29446127      -9.92106887     -16.62708751       0.00013293      -0.00003040       0.00006869
O      -22.37942105      -9.20671500     -17.02952977       0.00003886       0.00004220       0.00003979
H      -19.77738677     -11.94886137     -18.53788660      -0.00000656      -0.00003018       0.00002069
H      -20.99551211     -13.21542406     -18.60920194      -0.00000924      -0.00007252      -0.00005720
H      -22.66424358     -11.75419408     -17.45703755      -0.00004011      -0.00006275       0.00001640
H      -22.09600998     -10.98721384     -18.92765630      -0.00002712       0.00003649      -0.00011355
H      -20.75939373     -13.22802278     -14.95268775       0.00002200      -0.00006127       0.00020664
H      -22.02844994      -8.47880742     -16.48451510      -0.00003833      -0.00005749      -0.00003992
