21
Properties=species:S:1:pos:R:3:forces:R:3 -3140.36034=T energy=-31483.413325002926 free_energy=-31483.413325002926 pbc="F F F"
S      -22.31014282     -11.50899533     -17.76370902       0.00020718       0.00069236       0.00065476
O      -22.10119195     -11.50417370     -19.18506328       0.00000244      -0.00028358      -0.00038958
O      -23.51110412     -12.01464510     -17.15579839      -0.00063622      -0.00001469       0.00037336
O      -21.03953728     -12.26647237     -17.13639799       0.00041133      -0.00070949      -0.00026176
O      -22.10242388     -10.03363252     -17.17443420      -0.00019426       0.00001921      -0.00074748
H      -21.18857618     -12.38479526     -16.18160136      -0.00063235      -0.00010972       0.00021120
H      -21.19881486      -9.71589924     -17.42340771       0.00004493      -0.00001534      -0.00000176
C      -16.78058858      -8.61504074     -16.36950689      -0.00011600      -0.00001529       0.00080964
C      -16.91640975     -10.05510857     -15.93216119      -0.00019965       0.00005364      -0.00053084
C      -18.07291280     -10.30919313     -14.97133201       0.00015855       0.00049859       0.00050259
C      -19.39878480      -9.95296206     -15.58300163       0.00006938      -0.00033540       0.00038588
O      -16.36336513      -8.25207686     -17.43982271       0.00005077       0.00022757      -0.00010997
O      -17.12755088      -7.74984808     -15.39274778       0.00012177      -0.00056592       0.00014579
O      -19.51788771      -9.44130802     -16.68379335       0.00017038       0.00014973      -0.00058277
O      -20.43291317     -10.26820147     -14.80113088       0.00039279      -0.00007814       0.00034761
H      -17.01074675     -10.65333643     -16.84170469       0.00005579       0.00004076       0.00029408
H      -15.96679633     -10.33511572     -15.45893030       0.00018221       0.00005725      -0.00005287
H      -17.95449676      -9.72005199     -14.05523735       0.00031834      -0.00049415      -0.00038353
H      -18.10847958     -11.36385830     -14.67755671       0.00008487      -0.00015461      -0.00011180
H      -17.00548410      -6.86282978     -15.76969600      -0.00036063       0.00062146      -0.00008316
H      -21.25373417     -10.02893466     -15.27854459      -0.00013185       0.00041595      -0.00046931
