21
Properties=species:S:1:pos:R:3:forces:R:3 -3140.53035=T energy=-31483.691243067748 free_energy=-31483.691243067748 pbc="F F F"
S      -10.91973464      -4.35968100     -18.43176735       0.00037798       0.00025035       0.00003945
O      -10.29587693      -4.38732248     -17.14344943      -0.00021845      -0.00010507      -0.00052500
O      -10.47312358      -5.25173123     -19.48729938       0.00033897       0.00026715       0.00006461
O      -12.47452672      -4.50593388     -18.22678923       0.00021288      -0.00026355       0.00036395
O      -10.79418212      -2.90623570     -19.09791045      -0.00040964       0.00022341       0.00031935
H      -12.93258095      -4.49724159     -19.11076327       0.00005005      -0.00027823      -0.00023298
H      -11.12726646      -2.24589384     -18.46898165      -0.00029618      -0.00028325       0.00019990
C      -13.06292562      -5.50660641     -21.57882712       0.00054196      -0.00000229      -0.00020004
C      -13.80809135      -5.83575127     -22.85343738       0.00017548       0.00007391       0.00020862
C      -13.39321803      -7.13921730     -23.52855960      -0.00004590       0.00039005       0.00009972
C      -13.69274998      -8.34037726     -22.66632690      -0.00018317       0.00014877       0.00065207
O      -13.56924818      -4.82526321     -20.69793753       0.00000848       0.00009977       0.00009622
O      -11.83081193      -5.96127988     -21.54780570      -0.00018311       0.00003147      -0.00027406
O      -14.24392912      -8.30330562     -21.59154293       0.00003061      -0.00018430      -0.00040585
O      -13.28604312      -9.49102302     -23.23276137      -0.00028092       0.00005537       0.00027120
H      -14.87322650      -5.82932543     -22.61165432      -0.00000273      -0.00013365      -0.00014158
H      -13.63182675      -4.99155388     -23.53199147       0.00023796      -0.00000211      -0.00027789
H      -12.32084146      -7.13427883     -23.75227993       0.00017954       0.00004078      -0.00001401
H      -13.92302546      -7.26263828     -24.47901674      -0.00014392      -0.00011956      -0.00038660
H      -11.38198948      -5.67245281     -20.70883758      -0.00018154       0.00007723      -0.00010163
H      -13.51983235     -10.19464116     -22.60473194      -0.00020836      -0.00028623       0.00024425
