21
Properties=species:S:1:pos:R:3:forces:R:3 -3140.39111=T energy=-31483.517592073338 free_energy=-31483.517592073338 pbc="F F F"
S        0.47417155       0.83631147      -4.80797362       0.00007498       0.00006724       0.00019799
O        1.82929610       0.46491200      -4.53001264       0.00012207       0.00005397       0.00008446
O       -0.31319745       0.10731522      -5.77977276      -0.00036454      -0.00039762      -0.00047153
O       -0.28730939       0.91792612      -3.42431562       0.00017072      -0.00007910       0.00018105
O        0.39491812       2.35557891      -5.31911992       0.00024508       0.00048867       0.00023441
H       -1.19832932       1.26837906      -3.55997543      -0.00009293       0.00004131      -0.00000017
H        0.82922733       2.92524528      -4.66292573      -0.00011817      -0.00015004      -0.00022088
C       -3.64931843       0.72677433      -5.84408066      -0.00003053       0.00025400       0.00011428
C       -4.93542901       0.96426706      -5.07670957      -0.00019646       0.00007984       0.00006783
C       -4.92551780       0.51652352      -3.61898792      -0.00007561       0.00002268      -0.00001502
C       -3.86267257       1.18832265      -2.78540721      -0.00014400      -0.00064552       0.00006461
O       -3.37711836       1.33272720      -6.85172625       0.00010526      -0.00020211       0.00000729
O       -2.89335771      -0.23029503      -5.30552420      -0.00005893      -0.00003731      -0.00002301
O       -2.92428763       1.82973822      -3.22038532       0.00037643       0.00041208      -0.00039101
O       -4.03603660       0.98791183      -1.47678028      -0.00022042      -0.00004381       0.00023973
H       -5.16166044       2.03057590      -5.17608888      -0.00003026      -0.00018633      -0.00005600
H       -5.72081719       0.43050760      -5.62577571      -0.00002516       0.00011137      -0.00012237
H       -4.73483562      -0.56173238      -3.55912296       0.00014711       0.00022056       0.00013167
H       -5.89605644       0.69999375      -3.15042060       0.00003158      -0.00004014      -0.00011577
H       -1.99739447      -0.19520248      -5.70900681       0.00000785      -0.00000712       0.00000480
H       -3.29363742       1.42904477      -1.02875530       0.00007604       0.00003728       0.00008812
