21
Properties=species:S:1:pos:R:3:forces:R:3 -3140.18626=T energy=-31483.425743677155 free_energy=-31483.425743677155 pbc="F F F"
S      -14.15136756      -9.02501338     -15.81063453      -0.00019553       0.00004625       0.00006671
O      -12.87065051      -9.40198651     -16.36255558      -0.00032949       0.00017798      -0.00005907
O      -14.69561434      -7.72629494     -16.13225086      -0.00013053       0.00003576       0.00008196
O      -15.23346871     -10.15702599     -16.13362947       0.00062991      -0.00031340       0.00037552
O      -14.19083990      -9.28132438     -14.24990510       0.00024515      -0.00031292      -0.00009006
H      -15.40072620     -10.17341690     -17.09345008      -0.00027934       0.00025996      -0.00048926
H      -13.55866973      -8.66617452     -13.81705821      -0.00010085       0.00035239      -0.00009726
C      -10.75695705      -7.31987253     -13.74733465      -0.00014160       0.00007358       0.00002020
C      -11.00060798      -6.83874115     -15.15594471       0.00000113       0.00014848       0.00003099
C      -12.14232049      -5.84016426     -15.28631717      -0.00003695       0.00002271       0.00000437
C      -11.93767636      -4.61413577     -14.43232395      -0.00017726      -0.00023890      -0.00022101
O       -9.68690608      -7.54555219     -13.25165469      -0.00005149       0.00014062       0.00018270
O      -11.92395394      -7.55717547     -13.08227693       0.00004995       0.00014395      -0.00011699
O      -10.97249956      -4.40459593     -13.73714301       0.00044918       0.00034178      -0.00050780
O      -12.96422784      -3.75286705     -14.53168010      -0.00002635      -0.00035027       0.00032544
H      -10.05417483      -6.42727300     -15.51268255       0.00013835      -0.00031039       0.00019532
H      -11.23108142      -7.73427963     -15.74945995       0.00019714      -0.00028946       0.00010023
H      -13.10041413      -6.29880099     -15.01605319      -0.00012149       0.00006918      -0.00016580
H      -12.24851653      -5.51614338     -16.32877717       0.00002086      -0.00024295      -0.00009884
H      -11.66232470      -7.83961965     -12.18714894      -0.00009947       0.00010045      -0.00000789
H      -12.74647536      -3.00659943     -13.94851432      -0.00004187       0.00014561       0.00047023
