11
Properties=species:S:1:pos:R:3:forces:R:3 -1612.50333=T energy=-20590.109325900314 free_energy=-20590.109325900314 pbc="F F F"
S       15.44599518     -20.51298948     -27.67419587       0.00033219       0.00009789      -0.00027846
O       15.36316659     -21.91937883     -27.37688523      -0.00010771       0.00028372      -0.00014925
O       16.24070430     -19.99370706     -28.75850577      -0.00000924      -0.00023293      -0.00001788
O       13.91459162     -20.02745582     -27.90442478      -0.00020146       0.00037275      -0.00028732
O       15.83009642     -19.70684282     -26.37547018       0.00004510       0.00016186      -0.00007305
H       13.92380684     -19.28611130     -28.53346610       0.00012681      -0.00053577       0.00041397
H       15.18918066     -19.99156862     -25.62623737      -0.00017857      -0.00014147       0.00038822
N       13.97479332     -20.55205608     -24.64369352       0.00044757       0.00019360       0.00004838
H       14.02188213     -21.56646190     -24.62235805      -0.00004835       0.00005925       0.00032213
H       13.93610567     -20.21546249     -23.68788998      -0.00005006      -0.00033450      -0.00036940
H       13.10210575     -20.30628676     -25.10219170      -0.00035623       0.00007588       0.00000283
