11
Properties=species:S:1:pos:R:3:forces:R:3 -1612.46173=T energy=-20590.109556416402 free_energy=-20590.109556416402 pbc="F F F"
S       -4.86601143      -0.75380582       0.85700232      -0.00020066       0.00032993      -0.00000425
O       -4.43592202      -1.67026684      -0.16125624      -0.00020397       0.00038159      -0.00012147
O       -4.73559056       0.67647094       0.67708169      -0.00013717      -0.00040972       0.00038880
O       -6.40525646      -1.08399362       1.17840616       0.00030804      -0.00015989      -0.00005478
O       -4.23948288      -1.15306703       2.25167766       0.00011599      -0.00029754      -0.00020576
H       -6.82536712      -0.28011983       1.53321141      -0.00027829       0.00026743       0.00012555
H       -3.27244599      -0.83492887       2.24481567       0.00010914      -0.00016804      -0.00024497
N       -1.75826148      -0.04585314       2.11661269       0.00023517       0.00003766       0.00012647
H       -1.57756204       0.53435534       2.92980944      -0.00032475       0.00038904      -0.00044942
H       -0.93829679      -0.62056965       1.95045422       0.00009263       0.00018516       0.00081614
H       -1.87324620       0.57288159       1.31724582       0.00028385      -0.00055572      -0.00037639
