11
Properties=species:S:1:pos:R:3:forces:R:3 -1612.31994=T energy=-20590.153731773866 free_energy=-20590.153731773866 pbc="F F F"
S        7.03037361       2.47332271     -42.92302133       0.00004401      -0.00004414       0.00008197
O        6.63232397       1.86906735     -44.17579180       0.00005662       0.00009918       0.00018501
O        7.19873383       3.89779439     -42.81492230       0.00002703      -0.00010955      -0.00004864
O        5.98395014       1.97221935     -41.78944669       0.00005087      -0.00000340      -0.00009385
O        8.30599854       1.77421864     -42.34618342      -0.00010563      -0.00000331      -0.00011097
H        5.09429918       2.28154847     -42.03383176      -0.00003089      -0.00001261      -0.00002993
H        8.16744895       0.75629340     -42.38800378      -0.00003591       0.00007782      -0.00003441
N        7.64663467      -0.80900375     -42.46107488      -0.00012628       0.00030114      -0.00053832
H        8.30966873      -1.55025849     -42.26294051       0.00017828      -0.00020710       0.00007316
H        6.87686907      -0.88688988     -41.80301560      -0.00021410      -0.00012626       0.00037810
H        7.26156447      -0.96554506     -43.38819033       0.00015589       0.00002837       0.00013775
