11
Properties=species:S:1:pos:R:3:forces:R:3 -1612.32919=T energy=-20590.109326711277 free_energy=-20590.109326711277 pbc="F F F"
S       -9.42583934      -6.58233586       5.80712456       0.00013665       0.00010271      -0.00023437
O       -8.58421338      -7.65156810       5.33637785      -0.00029039       0.00019443       0.00004852
O      -10.86477291      -6.65013888       5.76453723       0.00010419      -0.00003499      -0.00011343
O       -8.98624258      -6.33115708       7.34906338       0.00037241      -0.00020473       0.00030738
O       -8.99463393      -5.22061413       5.14087643       0.00006477      -0.00020550      -0.00010613
H       -9.76268323      -6.00604336       7.83565696      -0.00025538       0.00012208       0.00009106
H       -7.98216206      -5.11302460       5.26956240      -0.00012489       0.00000265       0.00000196
N       -6.37999042      -5.14653133       5.70095856       0.00060491      -0.00027837      -0.00033133
H       -5.78732321      -4.37750190       5.40821593      -0.00030738      -0.00022894       0.00005180
H       -5.97300105      -6.01106012       5.35646733      -0.00029509       0.00056419       0.00020050
H       -6.35982783      -5.19414413       6.71562490      -0.00000992      -0.00003351       0.00008398
