11
Properties=species:S:1:pos:R:3:forces:R:3 -1612.55725=T energy=-20590.109325697573 free_energy=-20590.109325697573 pbc="F F F"
S       12.81815631     -15.83443994     -38.19731754       0.00019207       0.00027555       0.00027968
O       13.75490969     -16.76522698     -38.77444235      -0.00002849      -0.00000274      -0.00020194
O       12.06580068     -14.89783438     -38.99098788       0.00007057      -0.00006032      -0.00014207
O       11.84859277     -16.65400351     -37.26334518      -0.00014634       0.00008512       0.00030226
O       13.61856171     -14.93559920     -37.10854096       0.00026350      -0.00038961      -0.00002770
H       11.25326770     -15.98512561     -36.76187141       0.00016451      -0.00020412      -0.00020389
H       14.44555007     -15.39590609     -36.88589030      -0.00045975       0.00021532      -0.00007271
N       10.50708150     -14.69912860     -36.02485890       0.00020541       0.00012923       0.00038498
H       10.10692138     -14.10470942     -36.74473992      -0.00008371       0.00005835       0.00000519
H        9.78853137     -14.89113504     -35.33554093      -0.00007892      -0.00002897      -0.00011972
H       11.24347439     -14.16316389     -35.57463874      -0.00009874      -0.00007766      -0.00020403
