11
Properties=species:S:1:pos:R:3:forces:R:3 -1612.51306=T energy=-20590.109326407164 free_energy=-20590.109326407164 pbc="F F F"
S      -11.32344929      -7.99170175      -5.80221923      -0.00081381      -0.00021107       0.00022278
O      -10.97386657      -7.64796885      -7.15603274       0.00034899       0.00011253      -0.00037265
O      -12.39443738      -8.90191427      -5.48372795       0.00032175       0.00007355       0.00008535
O       -9.96245290      -8.57458622      -5.13752883       0.00000811      -0.00003142       0.00005676
O      -11.54317804      -6.68348801      -4.95108059      -0.00007652      -0.00001940       0.00013133
H      -10.21185785      -9.22355542      -4.45783865       0.00003995       0.00004007      -0.00003187
H      -10.72548311      -6.07819348      -5.08591006       0.00014591      -0.00000317      -0.00011340
N       -9.26419773      -5.35573155      -5.39782543       0.00002888      -0.00003128       0.00008662
H       -8.55137616      -6.00320307      -5.07397260       0.00000191      -0.00003508       0.00001398
H       -9.07911342      -4.44838288      -4.98453485       0.00002152       0.00005972       0.00008673
H       -9.15490283      -5.27523938      -6.40444588      -0.00002656       0.00004543      -0.00016573
