11
Properties=species:S:1:pos:R:3:forces:R:3 -1612.51156=T energy=-20590.109326103055 free_energy=-20590.109326103055 pbc="F F F"
S      -10.32775368     -12.76338950      -4.40286985      -0.00000054      -0.00010141       0.00044638
O      -10.74866528     -11.69179605      -5.26755522      -0.00005296       0.00017858      -0.00030911
O      -11.16293425     -13.28674426      -3.35143614      -0.00019380      -0.00009406       0.00008154
O       -9.94463689     -13.99279320      -5.39069130       0.00003996      -0.00007987      -0.00005376
O       -8.92274913     -12.42950277      -3.77158985       0.00002947      -0.00013633      -0.00005294
H      -10.11390578     -14.82500494      -4.91727211       0.00005767       0.00017779       0.00000240
H       -8.28901161     -12.16482125      -4.53421468       0.00005964       0.00003069       0.00004579
N       -7.46711301     -11.88069909      -5.94747209      -0.00040771       0.00022763      -0.00000262
H       -6.48730752     -11.62561014      -5.89065502       0.00039279       0.00002757       0.00005093
H       -7.95578599     -11.15445383      -6.46269377       0.00008485      -0.00036098      -0.00001545
H       -7.54181329     -12.73303396      -6.49534945      -0.00000948       0.00013033      -0.00019322
