11
Properties=species:S:1:pos:R:3:forces:R:3 -1612.43846=T energy=-20590.176341509705 free_energy=-20590.176341509705 pbc="F F F"
S       17.14086088     -18.68801293     -28.13785622      -0.00009776      -0.00007988      -0.00012253
O       16.46875669     -19.87419871     -28.61104812       0.00015819       0.00029635       0.00011098
O       16.57893512     -17.39500486     -28.45426716       0.00007413      -0.00019145       0.00002388
O       17.44156603     -18.79315886     -26.60292431       0.00014812      -0.00005224      -0.00005758
O       18.68530382     -18.73056620     -28.57686810      -0.00010982       0.00004807       0.00034711
H       16.55042747     -18.70884202     -26.11829437      -0.00013924      -0.00001125       0.00000174
H       18.74260657     -18.65977477     -29.54720116      -0.00003021      -0.00002107      -0.00031932
N       14.94964937     -18.40952515     -25.56159384      -0.00000894      -0.00012487       0.00047994
H       14.88223829     -18.03433088     -24.62098712       0.00002858       0.00000171      -0.00029868
H       14.58252138     -17.71104337     -26.20360415      -0.00005785       0.00002941      -0.00005060
H       14.34447213     -19.22311331     -25.61994212       0.00003500       0.00010505      -0.00011490
