11
Properties=species:S:1:pos:R:3:forces:R:3 -1612.25253=T energy=-20590.10982464225 free_energy=-20590.10982464225 pbc="F F F"
S       -1.35723977      -4.18809402     -25.85463555       0.00019917       0.00041494       0.00029272
O       -0.96897535      -5.08244146     -26.90966051       0.00039595       0.00014067      -0.00035179
O       -2.48586758      -3.29622145     -26.01448700      -0.00021660       0.00016809       0.00008303
O       -1.59736047      -5.07306077     -24.53505545       0.00016299      -0.00003994       0.00024676
O       -0.10706929      -3.35717249     -25.36660332      -0.00037867       0.00017887      -0.00006853
H       -2.22806333      -4.60358750     -23.96030103      -0.00000317      -0.00078006      -0.00038834
H        0.09648781      -2.68708406     -26.10793687      -0.00032650       0.00052325       0.00043025
N        0.10946419      -1.65255952     -27.45484828      -0.00019126       0.00001848       0.00039613
H        0.43080805      -2.13047597     -28.29095856      -0.00051376      -0.00070664       0.00002110
H       -0.87457225      -1.43526517     -27.59240677       0.00038117       0.00052249       0.00001863
H        0.61705052      -0.77798048     -27.37404617       0.00049052      -0.00044003      -0.00067990
