11
Properties=species:S:1:pos:R:3:forces:R:3 -1612.49076=T energy=-20590.153731571125 free_energy=-20590.153731571125 pbc="F F F"
S       -4.24598217      -1.07686720      -1.20810727       0.00016862      -0.00003196      -0.00000284
O       -4.30019269      -2.00890448      -2.30241230      -0.00009084      -0.00015008      -0.00022197
O       -5.44194387      -0.40327001      -0.75101746      -0.00016922      -0.00000238       0.00014007
O       -3.49413908      -1.75221757      -0.01339970      -0.00002652      -0.00008050       0.00008234
O       -3.14142640       0.06532233      -1.53433052       0.00003600       0.00025590      -0.00017519
H       -3.42175528      -1.07127682       0.75353178      -0.00007093       0.00012871       0.00001958
H       -3.48781494       0.63455269      -2.24347728       0.00010421      -0.00012104       0.00020269
N       -3.34222057       0.23173241       1.76476879       0.00037061      -0.00004645      -0.00020873
H       -2.73874641       0.91130267       1.31126787       0.00004944      -0.00000194      -0.00000551
H       -4.26946919       0.64419060       1.81378623      -0.00016096      -0.00000374       0.00019788
H       -3.00644844       0.09097568       2.71123214      -0.00021046       0.00005338      -0.00002795
