11
Properties=species:S:1:pos:R:3:forces:R:3 -1612.31045=T energy=-20589.570514357096 free_energy=-20589.570514357096 pbc="F F F"
S       -8.95040619      -4.86599289     -22.74754619      -0.00004521       0.00000978      -0.00013605
O       -7.64912436      -5.43481314     -22.51120854       0.00005102       0.00005794      -0.00008518
O       -9.60841011      -4.90277115     -24.01985766       0.00013399       0.00009596       0.00021601
O       -9.91285979      -5.51240099     -21.63349827      -0.00045403      -0.00002624      -0.00031441
O       -8.94264539      -3.32741168     -22.29198823      -0.00027989      -0.00008193      -0.00064139
H      -10.83245910      -5.44072732     -21.94086645       0.00022088      -0.00008763       0.00013335
H       -8.47908762      -3.24815535     -21.44021502       0.00046488       0.00004770       0.00085608
N       -5.11412078      -6.98167749     -22.41557001       0.00052335       0.00018855      -0.00007282
H       -4.89438403      -6.80147309     -21.43972188      -0.00026754       0.00005500      -0.00052428
H       -5.89838930      -6.37294034     -22.63496406      -0.00033294      -0.00033404      -0.00003652
H       -5.48592058      -7.92740542     -22.43908776      -0.00001454       0.00007483       0.00060508
