11
Properties=species:S:1:pos:R:3:forces:R:3 -1612.29670=T energy=-20590.176078251006 free_energy=-20590.176078251006 pbc="F F F"
S        7.21538079      -5.94250648     -41.64778362      -0.00066508       0.00018751       0.00022828
O        5.95823596      -6.63970043     -41.79481073       0.00076890       0.00032473      -0.00013734
O        7.78585666      -5.28507239     -42.79901280      -0.00039041      -0.00006676       0.00016624
O        7.12119055      -4.90533032     -40.42479442       0.00040783      -0.00072549      -0.00010419
O        8.27405792      -6.86546007     -40.95157215      -0.00017717       0.00044566      -0.00019151
H        6.47308687      -4.21161623     -40.64502459      -0.00022896       0.00035530      -0.00001790
H        8.42039517      -7.66372812     -41.56592107       0.00021585      -0.00046650      -0.00015249
N        8.35888800      -8.92407054     -42.73531553      -0.00063174      -0.00007293       0.00037710
H        8.79036013      -9.80679596     -42.48188268      -0.00011662      -0.00033462       0.00020662
H        7.36647394      -9.09041309     -42.88378148       0.00054011       0.00020500       0.00001233
H        8.74922130      -8.62516754     -43.62399558       0.00027737       0.00014819      -0.00038728
