11
Properties=species:S:1:pos:R:3:forces:R:3 -1612.32133=T energy=-20589.569546118557 free_energy=-20589.569546118557 pbc="F F F"
S       -9.93183828      -8.71853687       3.04508821      -0.00011874       0.00055195      -0.00006769
O       -9.71791966      -9.98134676       2.38764005      -0.00003535      -0.00012660      -0.00006333
O      -10.28641977      -7.51735750       2.34913085       0.00010443      -0.00018919       0.00008386
O      -11.02005913      -9.00789696       4.19283604      -0.00027412       0.00018325      -0.00002337
O       -8.64116178      -8.35981874       3.92832297       0.00008020      -0.00002735      -0.00006346
H      -11.44688952      -8.16785350       4.43248783       0.00019051      -0.00019442      -0.00006829
H       -8.34572673      -9.15667047       4.40210174       0.00000359      -0.00020285       0.00018132
N       -9.81707516     -12.21968766       0.42177062      -0.00002974      -0.00001970       0.00011126
H      -10.16869633     -11.74667399      -0.40630490      -0.00034251      -0.00000978      -0.00010961
H      -10.61582044     -12.71126139       0.81319196       0.00032998      -0.00015870       0.00001612
H       -9.59630219     -11.48397585       1.08784686       0.00009176       0.00019339       0.00000320
