11
Properties=species:S:1:pos:R:3:forces:R:3 -1612.55979=T energy=-20590.10932772498 free_energy=-20590.10932772498 pbc="F F F"
S       -8.17161402      -7.15162209      -1.12390171      -0.00005288       0.00013289       0.00000888
O       -8.23730749      -8.53024749      -1.53407931       0.00004224      -0.00020933      -0.00002787
O       -8.25151953      -6.05821588      -2.05932368       0.00009197       0.00006044       0.00004554
O       -9.36399353      -6.96468102      -0.03889594      -0.00003335       0.00018871       0.00005597
O       -6.89965943      -6.91463018      -0.22386380      -0.00011221       0.00007484      -0.00008815
H       -9.67289422      -6.04390716      -0.08483418       0.00010890      -0.00025475       0.00002652
H       -6.89993854      -7.62549938       0.51633794      -0.00001227       0.00000531       0.00001341
N       -7.19804227      -8.80428467       1.64579807       0.00038844       0.00031233       0.00035404
H       -7.29752991      -9.69269441       1.16361456      -0.00023446      -0.00045165      -0.00024012
H       -8.10299285      -8.58587169       2.05270239      -0.00030462       0.00005917      -0.00009741
H       -6.53222427      -8.92541612       2.40101796       0.00011829       0.00008243      -0.00005074
