11
Properties=species:S:1:pos:R:3:forces:R:3 -1612.32717=T energy=-20590.153731571125 free_energy=-20590.153731571125 pbc="F F F"
S       -2.63053978      -0.53179986      -0.72177499       0.00021469       0.00025007      -0.00004298
O       -3.36997036      -1.36459038       0.18863201      -0.00006437      -0.00016999       0.00007129
O       -1.54982737      -1.07923404      -1.51259377      -0.00011790       0.00000721       0.00016046
O       -3.64532261       0.24515054      -1.62469161       0.00001532      -0.00016540       0.00011149
O       -2.04180944       0.74729781       0.08345234      -0.00000623      -0.00015569      -0.00015044
H       -3.11653579       0.86895728      -2.24787810      -0.00003246       0.00021548      -0.00015700
H       -1.32939914       0.43977944       0.67064087      -0.00003817       0.00002825       0.00000821
N       -2.04658411       1.84773446      -3.03768100       0.00004202       0.00023614      -0.00029236
H       -1.28525495       1.26622943      -3.37616464      -0.00019786       0.00017226      -0.00000626
H       -1.65539854       2.47075561      -2.33733577      -0.00012667      -0.00012001      -0.00029957
H       -2.38414123       2.41101705      -3.81043053       0.00031172      -0.00029860       0.00059703
