11
Properties=species:S:1:pos:R:3:forces:R:3 -1612.55664=T energy=-20590.109327319497 free_energy=-20590.109327319497 pbc="F F F"
S       12.47807886     -16.37567813     -34.28338661      -0.00007052      -0.00038693      -0.00018054
O       12.38518715     -17.61549743     -35.00963654       0.00005567       0.00084496       0.00049275
O       11.79832398     -15.17641244     -34.70366829       0.00012082      -0.00014746      -0.00013447
O       11.99043163     -16.71953822     -32.77410700      -0.00027259       0.00033221       0.00023490
O       13.98996219     -16.00364978     -34.03861299      -0.00020132      -0.00006370      -0.00015964
H       11.58906550     -15.91860636     -32.39624087       0.00031283      -0.00050838      -0.00030924
H       14.45450449     -16.82290928     -33.63088269      -0.00004985      -0.00014926      -0.00001214
N       14.92128925     -18.23816031     -32.90056554      -0.00020090       0.00000492       0.00024822
H       15.88782024     -18.33181150     -32.60835343       0.00003648      -0.00013403      -0.00003332
H       14.33040593     -18.34324620     -32.08077483       0.00019586      -0.00012495      -0.00045595
H       14.70115963     -19.00902711     -33.52427624       0.00007353       0.00033282       0.00030926
