11
Properties=species:S:1:pos:R:3:forces:R:3 -1612.31257=T energy=-20589.569954843657 free_energy=-20589.569954843657 pbc="F F F"
S      -11.48601789       1.77191148     -18.70852134       0.00000419       0.00004198      -0.00014961
O      -10.80514094       0.56446729     -18.31971767       0.00001967      -0.00007367      -0.00013399
O      -12.15373037       1.93084529     -19.96625044       0.00014591       0.00005478       0.00012255
O      -12.51712587       2.08895900     -17.51623782      -0.00031271       0.00011100      -0.00016385
O      -10.47530240       3.01142114     -18.57865196       0.00000381       0.00006112       0.00007956
H      -13.21786126       2.66867991     -17.85998857       0.00018109      -0.00014500       0.00003996
H       -9.97879196       2.93376923     -17.74548411      -0.00006344      -0.00012521       0.00016471
N       -9.90747255      -2.25034819     -17.95597740      -0.00007461       0.00003502      -0.00017769
H      -10.66885531      -2.75748093     -18.39897197      -0.00027815       0.00005585       0.00031853
H      -10.08385926      -2.31473732     -16.95715924       0.00039991       0.00010803       0.00006098
H      -10.05080702      -1.27273708     -18.19559944      -0.00002576      -0.00012399      -0.00016122
