11
Properties=species:S:1:pos:R:3:forces:R:3 -1612.49623=T energy=-20590.109325494832 free_energy=-20590.109325494832 pbc="F F F"
S       15.40789390     -19.23301154     -29.19302726       0.00007276      -0.00002582      -0.00011537
O       16.78184233     -18.90296796     -29.46955025      -0.00025797      -0.00001884       0.00006847
O       14.47749939     -19.61380811     -30.22565572       0.00010943       0.00004610       0.00010532
O       15.46138739     -20.43616706     -28.10503519       0.00033426       0.00018111       0.00001884
O       14.73519646     -18.08595059     -28.34706179       0.00008366      -0.00002411       0.00003266
H       14.67434032     -20.99294809     -28.23112217      -0.00023384      -0.00017977      -0.00011593
H       15.34199789     -17.88965202     -27.54293484      -0.00007367       0.00000225       0.00003977
N       16.44120959     -17.85063334     -26.30087394      -0.00006491      -0.00012769       0.00010242
H       16.45436245     -18.78685089     -25.90644146      -0.00000688       0.00007427      -0.00013556
H       16.29019737     -17.19094748     -25.54567712       0.00012181       0.00025362      -0.00004601
H       17.36336888     -17.68172091     -26.69164009      -0.00008458      -0.00018115       0.00004521
