11
Properties=species:S:1:pos:R:3:forces:R:3 -1612.53450=T energy=-20590.109326508536 free_energy=-20590.109326508536 pbc="F F F"
S       13.68743151     -16.24668222     -33.94367680      -0.00001157       0.00042084      -0.00032716
O       13.33835853     -17.57718514     -34.36921191      -0.00002760      -0.00015044      -0.00001225
O       13.46217972     -15.08420545     -34.76517425       0.00001450      -0.00025129       0.00017780
O       12.90538296     -16.02124588     -32.53956081      -0.00007900       0.00003567       0.00005776
O       15.18910047     -16.20737859     -33.46668930       0.00007364       0.00001013      -0.00000896
H       12.70878450     -15.07308481     -32.45189193      -0.00000095      -0.00001679       0.00005251
H       15.32557258     -16.96766083     -32.79097628       0.00002827      -0.00002442       0.00004329
N       15.24066646     -18.19068453     -31.67251007      -0.00011808      -0.00006159       0.00030211
H       16.08240588     -18.43425226     -31.16212321       0.00001258       0.00004565      -0.00003195
H       14.89652247     -19.02631199     -32.13617369      -0.00006658       0.00009054       0.00003242
H       14.53146631     -17.91231235     -31.00036298       0.00017484      -0.00009815      -0.00028545
