11
Properties=species:S:1:pos:R:3:forces:R:3 -1612.24464=T energy=-20590.153708154583 free_energy=-20590.153708154583 pbc="F F F"
S       -3.95611309       1.15556562      -3.73077150      -0.00019998       0.00022956      -0.00008566
O       -2.58837597       0.73719040      -3.94748509       0.00009298       0.00000894      -0.00015525
O       -4.48337358       2.31780163      -4.39428716       0.00026667      -0.00026190       0.00000018
O       -4.94590814      -0.03667670      -3.94926138      -0.00021052       0.00038850      -0.00008006
O       -4.16623416       1.31343884      -2.13002807      -0.00021649      -0.00012147       0.00002500
H       -4.58875701      -0.85482405      -3.43953234      -0.00004077      -0.00038527       0.00026117
H       -3.55698479       1.99942251      -1.80575697       0.00042118       0.00055198      -0.00002137
N       -3.87010889      -1.96393595      -2.44729968      -0.00087317      -0.00029310      -0.00022941
H       -3.94232535      -1.59016463      -1.50554033      -0.00017326      -0.00025284       0.00053489
H       -4.23236583      -2.91111355      -2.44087617       0.00080015      -0.00005820      -0.00041460
H       -2.88109401      -2.00282849      -2.67630421       0.00013301       0.00019383       0.00016499
