11
Properties=species:S:1:pos:R:3:forces:R:3 -1612.55723=T energy=-20590.10680887546 free_energy=-20590.10680887546 pbc="F F F"
S       -3.12773745       1.23993500      -5.47469393      -0.00004450       0.00011134       0.00014142
O       -2.11531673       1.30151334      -6.49833644       0.00006485      -0.00003467      -0.00013292
O       -4.49448693       1.62300799      -5.71098984       0.00005126      -0.00003093      -0.00001413
O       -3.07033695      -0.19940488      -4.83639779      -0.00005230       0.00003082       0.00005180
O       -2.63151831       2.15549824      -4.22966102      -0.00003549       0.00000276       0.00001407
H       -3.68665935      -0.20627557      -4.01540022      -0.00001306      -0.00000852      -0.00004274
H       -1.66957063       2.27460147      -4.30681389      -0.00001298      -0.00000330       0.00000036
N       -4.58512315       0.04041764      -2.64675921      -0.00068742       0.00020188      -0.00069034
H       -4.18178472      -0.40284490      -1.82771137       0.00031301      -0.00015628       0.00066376
H       -5.55967479      -0.23662258      -2.70833776       0.00026166       0.00007714       0.00001955
H       -4.56052875       1.04518871      -2.49623729       0.00015527      -0.00019014      -0.00001095
