11
Properties=species:S:1:pos:R:3:forces:R:3 -1612.52544=T energy=-20590.17634201656 free_energy=-20590.17634201656 pbc="F F F"
S       -9.37991748      -9.08263857       0.52562704       0.00015417       0.00002329      -0.00010765
O      -10.37872469      -9.90927465       1.16342821      -0.00012374      -0.00009930       0.00003111
O       -8.17011621      -9.70169450       0.04002161       0.00001419      -0.00000335       0.00011867
O      -10.05701251      -8.22362881      -0.65058478      -0.00017118       0.00000963      -0.00010423
O       -9.04868453      -7.83749687       1.41859614       0.00005430      -0.00008848       0.00000465
H      -10.36817946      -8.82881837      -1.34828337       0.00009331       0.00009990       0.00015128
H       -8.65725817      -8.19093164       2.28923151      -0.00003289       0.00007833      -0.00016947
N       -8.15862314      -9.05490384       3.69162492       0.00004298       0.00006187       0.00013348
H       -8.24639938      -8.54714428       4.56599661       0.00008126      -0.00013620      -0.00012323
H       -8.78259980      -9.85729592       3.73233525      -0.00008777      -0.00004560       0.00002554
H       -7.20967724      -9.41142291       3.62865676      -0.00002441       0.00010019       0.00003997
