11
Properties=species:S:1:pos:R:3:forces:R:3 -1612.56103=T energy=-20590.153732179348 free_energy=-20590.153732179348 pbc="F F F"
S       11.12485656     -14.93783667     -37.07012833       0.00005645       0.00036570       0.00038850
O       10.83175936     -15.36272382     -38.41277668      -0.00011298       0.00009656       0.00019574
O       11.29616497     -13.53528240     -36.75948422      -0.00013772      -0.00056362      -0.00002980
O       10.09351806     -15.60297621     -36.09920960       0.00036925      -0.00000870      -0.00018516
O       12.44588083     -15.71605093     -36.54061235      -0.00028744       0.00003408       0.00008650
H       10.32865396     -15.32994332     -35.13627851       0.00001726       0.00012964      -0.00010877
H       13.21977004     -15.36707846     -37.01621713       0.00009164      -0.00004375      -0.00004482
N       10.98646534     -14.84114706     -33.70253031       0.00033570       0.00001674      -0.00025348
H       10.46857854     -15.01363423     -32.84789905      -0.00003159      -0.00003964      -0.00003904
H       11.88738961     -15.30409184     -33.62706575      -0.00012293      -0.00012012       0.00006279
H       11.16973814     -13.84393928     -33.76808463      -0.00017771       0.00013301      -0.00007284
