11
Properties=species:S:1:pos:R:3:forces:R:3 -1612.55561=T energy=-20590.109327116756 free_energy=-20590.109327116756 pbc="F F F"
S       -7.46861391      -6.25788802     -23.31225160       0.00042905      -0.00021986       0.00031043
O       -7.37959041      -6.67917005     -24.68621509       0.00002053      -0.00005591      -0.00013781
O       -8.57526826      -5.48541522     -22.80675986      -0.00011867       0.00037766       0.00012422
O       -7.37141572      -7.61924311     -22.43406533       0.00017357       0.00011134      -0.00029495
O       -6.14164798      -5.52290472     -22.88432337      -0.00031689      -0.00019854      -0.00019803
H       -7.87313361      -7.48518393     -21.61208984      -0.00008485      -0.00007379       0.00013795
H       -5.35083004      -6.12449697     -23.14104455      -0.00002791       0.00008305       0.00001868
N       -4.28168092      -7.32095994     -23.56504626       0.00029096       0.00023134      -0.00074824
H       -3.29213543      -7.15574389     -23.41715289      -0.00068426      -0.00015840       0.00006975
H       -4.54920117      -8.14341458     -23.03193126       0.00015080      -0.00019675       0.00017262
H       -4.42391487      -7.54522200     -24.54545690       0.00016772       0.00010002       0.00054520
