11
Properties=species:S:1:pos:R:3:forces:R:3 -1612.55719=T energy=-20590.109326305796 free_energy=-20590.109326305796 pbc="F F F"
S       -4.49894409      -1.32574206      -1.91718845       0.00001398      -0.00014874      -0.00000376
O       -3.35820571      -0.73767774      -2.57280815      -0.00014114      -0.00000930       0.00008094
O       -5.85345002      -0.95623713      -2.23649413       0.00004220       0.00007263      -0.00008303
O       -4.33349907      -2.89145281      -1.98980364      -0.00013322      -0.00000638       0.00000504
O       -4.34315627      -1.06659191      -0.32265826      -0.00006610       0.00004106       0.00001312
H       -5.08075763      -3.31414368      -1.42750626       0.00014235      -0.00001234      -0.00000709
H       -3.41518208      -0.83902657      -0.14261309       0.00016503       0.00004159       0.00002810
N       -6.30860056      -3.72067702      -0.38768853      -0.00052844       0.00017338      -0.00041844
H       -6.09222008      -3.27074093       0.49715613       0.00017455      -0.00017416       0.00033191
H       -7.16940367      -3.30305673      -0.72873926       0.00022341      -0.00025539      -0.00006083
H       -6.48131888      -4.70385719      -0.20915173       0.00010711       0.00027755       0.00011393
