11
Properties=species:S:1:pos:R:3:forces:R:3 -1612.50732=T energy=-20590.10680999053 free_energy=-20590.10680999053 pbc="F F F"
S       -9.18175563      -7.11673699       4.35210609       0.00016220       0.00008972       0.00022234
O       -9.61070553      -7.70184634       3.10700195       0.00006479      -0.00000298      -0.00006151
O       -9.37871847      -5.72598578       4.66452736      -0.00003207      -0.00012612      -0.00007755
O       -9.73934224      -8.01878279       5.51736336       0.00002497       0.00007641       0.00001901
O       -7.58491660      -7.36987106       4.49577671      -0.00020494       0.00009399      -0.00000920
H       -9.32225409      -7.69296380       6.39703312      -0.00001562      -0.00004317      -0.00007393
H       -7.34062107      -8.10170719       3.90398879      -0.00001989      -0.00007755      -0.00003397
N       -8.41800686      -7.13137441       7.66517922       0.00052561       0.00048908      -0.00055324
H       -7.60887074      -6.69265652       7.23428323      -0.00036880      -0.00036383       0.00011945
H       -8.07996012      -7.87623325       8.26597066      -0.00019448       0.00030789       0.00020286
H       -8.86982781      -6.43478835       8.24905674       0.00005814      -0.00044349       0.00024581
