11
Properties=species:S:1:pos:R:3:forces:R:3 -1612.32726=T energy=-20590.153731773866 free_energy=-20590.153731773866 pbc="F F F"
S        0.89521861       1.17453714     -26.07120225      -0.00002983       0.00004794      -0.00007582
O        1.07611464      -0.24135422     -26.30683599       0.00004303      -0.00009274       0.00001270
O       -0.32333828       1.67334885     -25.49202118      -0.00000185       0.00003016       0.00002742
O        2.15464302       1.68276285     -25.18427672      -0.00004083      -0.00011627       0.00011011
O        1.20908604       2.00023843     -27.36286812       0.00007960       0.00000197      -0.00002451
H        2.14591011       1.20587418     -24.33610504       0.00003589       0.00010441      -0.00012037
H        2.10046691       1.66876026     -27.75361053      -0.00003828       0.00000778       0.00005272
N        3.58688442       1.03670186     -28.09683497       0.00010920       0.00006814       0.00009885
H        4.02753138       1.28410645     -28.97602111      -0.00004140      -0.00003380       0.00001121
H        3.51209480       0.02442312     -28.05182933       0.00002173       0.00008625       0.00000355
H        4.20252190       1.32268469     -27.34127455      -0.00013711      -0.00010392      -0.00009575
