11
Properties=species:S:1:pos:R:3:forces:R:3 -1612.30732=T energy=-20590.109851809495 free_energy=-20590.109851809495 pbc="F F F"
S       -8.58280162      -6.55786338       4.50982778       0.00009196      -0.00000306       0.00004235
O       -7.51125614      -7.38202839       5.02647094      -0.00016117       0.00016606      -0.00009847
O       -8.41706135      -5.80742817       3.29626887      -0.00002205       0.00003803       0.00014257
O       -9.90506197      -7.41727391       4.43456003       0.00001043       0.00005239      -0.00004071
O       -9.02426805      -5.52610294       5.65964764       0.00011912      -0.00021890       0.00039238
H       -9.71856374      -8.17571486       3.77947013       0.00006235       0.00000962      -0.00009399
H       -8.74374143      -5.88536355       6.52033800      -0.00007991       0.00012331      -0.00036241
N       -9.10034307      -9.37802061       2.74470340       0.00078306       0.00016861      -0.00041468
H       -9.10663820      -9.11088557       1.76511459      -0.00004090      -0.00030175       0.00057185
H       -9.52764499     -10.29483383       2.82497897       0.00003372       0.00005704       0.00006531
H       -8.12785248      -9.45869399       3.03184260      -0.00079662      -0.00009151      -0.00020446
