11
Properties=species:S:1:pos:R:3:forces:R:3 -1612.28086=T energy=-20590.176120218315 free_energy=-20590.176120218315 pbc="F F F"
S       -3.34232515      -0.98228316      -2.20609430       0.00020221      -0.00051197       0.00001910
O       -3.14715350      -2.22832211      -2.91164794       0.00029063      -0.00023460       0.00012612
O       -3.99976135       0.10853367      -2.88437042      -0.00045723       0.00034666      -0.00032862
O       -3.99281543      -1.24872066      -0.80360067      -0.00004666      -0.00011799       0.00007743
O       -1.94268237      -0.47496553      -1.60223084       0.00039184       0.00004505       0.00037232
H       -4.88012179      -1.71796105      -0.96521040      -0.00001855      -0.00006955      -0.00002088
H       -1.33945074      -0.25617918      -2.33576742       0.00000816       0.00037008      -0.00022225
N       -6.23860084      -2.65297938      -1.48881037      -0.00003190       0.00019555       0.00047603
H       -5.84815998      -3.42206139      -2.02725075      -0.00020629      -0.00042248      -0.00008255
H       -6.81632828      -3.04751859      -0.75354731       0.00028892      -0.00000060      -0.00040141
H       -6.84015268      -2.12317824      -2.11293677      -0.00042105       0.00039971      -0.00001484
