11
Properties=species:S:1:pos:R:3:forces:R:3 -1612.52698=T energy=-20590.10932103454 free_energy=-20590.10932103454 pbc="F F F"
S       -1.99327584       1.75278251      -3.98286416       0.00005640       0.00004211       0.00005944
O       -2.48709241       1.97649838      -5.31679574       0.00006258       0.00016597       0.00016737
O       -0.88267209       2.48777807      -3.43219425      -0.00020069      -0.00014085       0.00003886
O       -3.26939091       1.97483734      -3.00524333       0.00016725      -0.00008535       0.00004912
O       -1.70318749       0.21913353      -3.76327802      -0.00002778       0.00006746      -0.00014630
H       -2.94164022       2.29872603      -2.14909201      -0.00006424      -0.00003581      -0.00010798
H       -2.53805051      -0.30425190      -4.04973993       0.00002357       0.00006421      -0.00011544
N       -4.03249181      -0.88464480      -4.48220256      -0.00001371      -0.00001814       0.00001681
H       -4.70162370      -0.46187953      -3.84526378       0.00009644       0.00024971      -0.00015014
H       -4.17790666      -1.88822594      -4.47385436      -0.00002348      -0.00002801       0.00023337
H       -4.25074262      -0.53932207      -5.41224443      -0.00007646      -0.00028124      -0.00004515
