11
Properties=species:S:1:pos:R:3:forces:R:3 -1612.56190=T energy=-20590.109327522237 free_energy=-20590.109327522237 pbc="F F F"
S       -1.56403720      -6.11714243      -0.05500626       0.00031411       0.00014346       0.00016331
O       -0.16384062      -6.09008746      -0.38949942       0.00011301      -0.00007719      -0.00005138
O       -2.46662452      -7.11557216      -0.57017864      -0.00012994      -0.00003749      -0.00001347
O       -1.62150735      -6.18489968       1.56550855       0.00031009       0.00029466      -0.00034463
O       -2.21245694      -4.70619662      -0.32497388      -0.00014417       0.00000497       0.00004406
H       -2.43048715      -6.66058386       1.81967284      -0.00042250      -0.00029427       0.00023638
H       -1.63222793      -3.99823416       0.13909996      -0.00010537      -0.00000548       0.00001681
N       -0.58769425      -3.08925903       1.05386650      -0.00059499       0.00054893      -0.00030911
H        0.35851937      -3.26327651       0.72819064       0.00058997      -0.00022800       0.00006616
H       -0.73115344      -2.08611060       1.09218613      -0.00001359      -0.00030184       0.00013599
H       -0.64651690      -3.45455126       2.00007732       0.00008323      -0.00004774       0.00005601
