11
Properties=species:S:1:pos:R:3:forces:R:3 -1612.47458=T energy=-20590.176057774202 free_energy=-20590.176057774202 pbc="F F F"
S        4.05099466       1.25503202     -26.98428168      -0.00000381      -0.00003584       0.00000858
O        3.11959644       0.49258848     -26.18728107      -0.00002897      -0.00013423      -0.00005376
O        3.58227918       1.87057408     -28.20449477      -0.00004685       0.00006276      -0.00011837
O        4.77597175       2.35522179     -26.06537446      -0.00021237       0.00045981       0.00018418
O        5.35542898       0.42940202     -27.25282624      -0.00004855      -0.00015450      -0.00002345
H        4.11700518       3.01267544     -25.77670471       0.00035523      -0.00035571      -0.00010471
H        5.09704380      -0.32675013     -27.88472323      -0.00003040       0.00005723       0.00006787
N        4.34254711      -1.40612425     -28.98154911      -0.00050674       0.00020899       0.00021234
H        4.92757844      -2.06014897     -29.49090847       0.00013959      -0.00023991       0.00006372
H        3.62435764      -1.93546258     -28.49609126       0.00046062       0.00017086      -0.00019585
H        3.86924323      -0.81265495     -29.65825165      -0.00007759      -0.00003961      -0.00004047
