11
Properties=species:S:1:pos:R:3:forces:R:3 -1612.55157=T energy=-20590.109326711277 free_energy=-20590.109326711277 pbc="F F F"
S      -11.24382717      -5.01095256     -22.21981503       0.00019898      -0.00038986       0.00002463
O      -11.07022189      -5.02632230     -23.64908082      -0.00016147      -0.00007346       0.00002933
O      -12.54119052      -4.94751537     -21.59550991      -0.00007904       0.00022623       0.00000083
O      -10.49702035      -6.34606544     -21.67784674      -0.00005043      -0.00016865       0.00030634
O      -10.35230619      -3.88054483     -21.57836263       0.00004568      -0.00003158       0.00008873
H      -10.95028069      -6.63878572     -20.86899794       0.00016086       0.00038375      -0.00055108
H       -9.39628642      -3.99257720     -21.93432316       0.00000185       0.00000567       0.00000948
N       -7.93978410      -4.45896775     -22.57875601      -0.00022894       0.00031450       0.00028018
H       -7.11724634      -3.91006920     -22.35406543       0.00001237      -0.00027782       0.00011736
H       -7.78146123      -5.41162834     -22.26317043       0.00019425       0.00010157       0.00002740
H       -8.03262060      -4.49413904     -23.58960547      -0.00009417      -0.00009018      -0.00033316
