11
Properties=species:S:1:pos:R:3:forces:R:3 -1612.25300=T energy=-20590.109328231832 free_energy=-20590.109328231832 pbc="F F F"
S       -3.41355301      -0.38620666      -1.23123899      -0.00009283       0.00021839       0.00009199
O       -2.40744072      -1.20131248      -0.60155591       0.00025213      -0.00007856       0.00018632
O       -3.46131037       1.04591745      -1.07737992       0.00008351       0.00013292       0.00005266
O       -3.30499709      -0.71162981      -2.81750000      -0.00003394       0.00007489      -0.00050324
O       -4.84906053      -0.94733493      -0.90180998      -0.00020389      -0.00023379       0.00010063
H       -3.57788149       0.08209346      -3.30830538       0.00009201      -0.00015755       0.00005741
H       -4.85330962      -1.95035125      -1.11905618      -0.00002401       0.00008099       0.00009696
N       -4.61401825      -3.50729394      -1.64120108      -0.00023372      -0.00035295       0.00076981
H       -4.35417407      -3.44163679      -2.62118329       0.00038163       0.00001916      -0.00051832
H       -3.81341295      -3.89172106      -1.14829746      -0.00029110       0.00028654      -0.00036713
H       -5.38227855      -4.16428357      -1.56065386       0.00007021       0.00001009       0.00003279
