11
Properties=species:S:1:pos:R:3:forces:R:3 -1612.51029=T energy=-20590.108164804755 free_energy=-20590.108164804755 pbc="F F F"
S       -9.70243318      -8.80919295       2.82855047      -0.00011223      -0.00016423       0.00000790
O       -8.95727269      -9.52089242       1.81182467      -0.00011897      -0.00017238       0.00003970
O      -10.33697789      -7.55368606       2.54224230      -0.00030410      -0.00013900       0.00005436
O      -10.73006902      -9.80833685       3.49797756      -0.00012555      -0.00020814       0.00017440
O       -8.73825723      -8.57415241       4.09240768      -0.00004846      -0.00010374       0.00003666
H      -11.27319176     -10.23439539       2.75083342      -0.00018715       0.00003365       0.00002127
H       -8.03741378      -9.25039617       4.07715191       0.00046856       0.00028017      -0.00045051
N      -11.94321352     -11.08733784       1.41537797      -0.00025231       0.00012646      -0.00007791
H      -11.18559520     -11.17855053       0.74306208       0.00045621       0.00000930       0.00053671
H      -12.22477885     -12.02332980       1.69004715      -0.00027412       0.00032708      -0.00008847
H      -12.72716423     -10.65202091       0.93877686       0.00049805       0.00001049      -0.00025418
