11
Properties=species:S:1:pos:R:3:forces:R:3 -1612.54465=T energy=-20590.176340800113 free_energy=-20590.176340800113 pbc="F F F"
S      -10.94741495      -6.33029854     -20.97439019      -0.00003503       0.00033193      -0.00033520
O      -10.03321729      -7.38990665     -21.33380460       0.00006068      -0.00011611      -0.00002909
O      -11.69116211      -5.66799521     -22.01883847       0.00008500      -0.00006628       0.00024140
O      -11.95667607      -6.84702304     -19.83676808      -0.00048104      -0.00053826      -0.00007421
O      -10.23597662      -5.28444553     -20.04837118       0.00005585       0.00004223      -0.00007603
H      -12.51905069      -7.55203977     -20.20631353       0.00034135       0.00037657       0.00018804
H       -9.47641253      -4.87591040     -20.58901047       0.00005671      -0.00001368       0.00002500
N       -8.20397899      -4.45748414     -21.66960866       0.00006351      -0.00008518       0.00004448
H       -7.96557314      -5.33066767     -22.13389300      -0.00007743       0.00011414       0.00022262
H       -8.48677472      -3.79865041     -22.38900419      -0.00002959       0.00000536      -0.00015557
H       -7.36304846      -4.09942155     -21.22837378      -0.00004002      -0.00005092      -0.00005120
