11
Properties=species:S:1:pos:R:3:forces:R:3 -1612.55907=T energy=-20590.109327218128 free_energy=-20590.109327218128 pbc="F F F"
S       16.26010863     -19.34823941     -28.17918066      -0.00039635      -0.00012624      -0.00021812
O       17.35344533     -18.53099789     -27.72103093       0.00018466       0.00004148       0.00007510
O       15.88949016     -19.44204065     -29.56870579       0.00003177       0.00001061       0.00012815
O       16.58801469     -20.84727728     -27.65067462      -0.00006369      -0.00002673      -0.00011384
O       14.95494683     -19.01455347     -27.36105719       0.00017625      -0.00002653      -0.00007492
H       16.19855019     -21.48064021     -28.27718969       0.00011498       0.00013907       0.00015312
H       15.18838164     -19.05883591     -26.36267096      -0.00003693      -0.00003007       0.00002407
N       15.80750938     -19.29467988     -24.84108277      -0.00081796       0.00006552       0.00037391
H       16.62135952     -18.69724111     -24.72980037       0.00066113       0.00019118      -0.00006469
H       15.19551648     -19.14939597     -24.04564521       0.00021353      -0.00039986      -0.00039914
H       16.13960919     -20.25449326     -24.81478343      -0.00006758       0.00016165       0.00011599
