11
Properties=species:S:1:pos:R:3:forces:R:3 -1612.28563=T energy=-20589.563636026603 free_energy=-20589.563636026603 pbc="F F F"
S       -6.03687915       0.74916414      -0.27450381       0.00026811      -0.00019513      -0.00027161
O       -5.02940931       1.48116564       0.45255665      -0.00017071       0.00001431      -0.00013268
O       -6.29093409       0.92271499      -1.67562077       0.00006050       0.00003442       0.00016558
O       -5.73753235      -0.80537634       0.01388930       0.00000475      -0.00007769      -0.00008872
O       -7.44593108       0.94598853       0.47120150      -0.00009255       0.00019237       0.00059630
H       -6.10976165      -1.32845790      -0.71643484      -0.00003991       0.00009388      -0.00002104
H       -7.28892995       1.00411721       1.42973221      -0.00003859      -0.00004410      -0.00027564
N       -2.83104490       3.19896918      -0.75432602       0.00014574      -0.00016806       0.00015384
H       -1.96660908       2.72195423      -0.51529014      -0.00006884       0.00017264       0.00017034
H       -3.59027272       2.60229391      -0.43356282       0.00011268       0.00011432      -0.00005155
H       -2.85700869       4.03388318      -0.17635670      -0.00018113      -0.00013685      -0.00024457
