11
Properties=species:S:1:pos:R:3:forces:R:3 -1612.28388=T energy=-20590.176341712446 free_energy=-20590.176341712446 pbc="F F F"
S       -7.83114447      -9.55238542       2.35261947      -0.00015653       0.00013889      -0.00034107
O       -6.59747048      -9.61890314       1.60675306      -0.00063944      -0.00001481       0.00043690
O       -8.67684367      -8.39087995       2.19949465       0.00039220      -0.00033963      -0.00004819
O       -8.68936564     -10.88589218       2.09750036       0.00044040       0.00023037       0.00027488
O       -7.58062706      -9.85043271       3.87113986       0.00011694      -0.00005668      -0.00001916
H       -8.97919038     -10.90494159       1.16718657      -0.00008307       0.00008583      -0.00020950
H       -7.08669285      -9.04737671       4.25484495       0.00001224       0.00000848       0.00000674
N       -6.38738832      -7.52856407       4.66272041       0.00004809       0.00019969       0.00004059
H       -6.90842849      -6.85132492       4.11070351       0.00037906      -0.00015800       0.00003162
H       -6.46886897      -7.26355193       5.63903654       0.00021510      -0.00019338      -0.00033322
H       -5.41052201      -7.45031284       4.39587530      -0.00072490       0.00009932       0.00016049
