11
Properties=species:S:1:pos:R:3:forces:R:3 -1612.49124=T energy=-20590.153731165643 free_energy=-20590.153731165643 pbc="F F F"
S       10.44337669     -14.42254439     -38.83657790      -0.00009378       0.00009837      -0.00000998
O       10.66440579     -14.98850972     -40.14041188      -0.00004143       0.00000775       0.00015426
O        9.22168854     -13.70713232     -38.53880364       0.00030649      -0.00009269      -0.00002122
O       10.72238061     -15.52350967     -37.76013044      -0.00000915       0.00013936       0.00001574
O       11.68143875     -13.44333986     -38.46313625      -0.00010556       0.00023153      -0.00026161
H       10.60235762     -15.10650276     -36.82802786       0.00000703      -0.00001396      -0.00004395
H       11.62362874     -12.64802873     -39.02084400      -0.00001792      -0.00031889       0.00020779
N       10.46146362     -14.17111901     -35.47452230      -0.00007028      -0.00032936      -0.00003750
H       11.22966762     -13.50724600     -35.50248860       0.00020790       0.00021735      -0.00000998
H        9.60241433     -13.63465940     -35.55551773      -0.00015396       0.00006677       0.00003589
H       10.46797684     -14.62588547     -34.56816204      -0.00002959      -0.00000636      -0.00002943
