11
Properties=species:S:1:pos:R:3:forces:R:3 -1612.55304=T energy=-20590.109326001682 free_energy=-20590.109326001682 pbc="F F F"
S      -10.32719077      -8.61050863      -4.15793520       0.00025484       0.00003472      -0.00012869
O      -10.88281173      -9.74013070      -3.45638399       0.00000596       0.00013018       0.00008297
O      -10.84643127      -8.14799743      -5.41874862       0.00008470      -0.00001645       0.00014496
O      -10.23974577      -7.41332876      -3.13653833      -0.00001679      -0.00022724      -0.00004375
O       -8.75492915      -8.91444620      -4.42173337      -0.00033052       0.00021214       0.00009447
H       -9.74124536      -6.64262315      -3.59558630      -0.00006948      -0.00000435      -0.00010559
H       -8.47975266      -9.62712406      -3.82031033       0.00004257      -0.00008210      -0.00004843
N       -8.83351769      -5.61352527      -4.52898528      -0.00004788       0.00048163       0.00016779
H       -7.97130570      -6.10747111      -4.74070600       0.00003269      -0.00004092      -0.00010903
H       -9.31638384      -5.47051810      -5.41107876       0.00011525      -0.00011356      -0.00003532
H       -8.59268033      -4.70526355      -4.14764974      -0.00007126      -0.00037412      -0.00001934
