11
Properties=species:S:1:pos:R:3:forces:R:3 -1612.56046=T energy=-20590.109326103055 free_energy=-20590.109326103055 pbc="F F F"
S        0.70788667      -3.95399681       1.77276572      -0.00015315      -0.00000513      -0.00011374
O        1.67453396      -2.90701942       1.56635303       0.00001717      -0.00004864      -0.00002122
O       -0.70940296      -3.74449380       1.61676136       0.00002158       0.00001848       0.00007729
O        1.14578296      -5.15246257       0.76982397      -0.00041062      -0.00032496      -0.00018281
O        0.93597204      -4.63219077       3.17708611       0.00009471      -0.00000785      -0.00005770
H        0.34427903      -5.63844565       0.51140122       0.00050836       0.00038217       0.00023656
H        1.92745511      -4.88783330       3.24674419      -0.00005136      -0.00002467       0.00005349
N        3.52913326      -5.27691270       3.05360080      -0.00016449       0.00022958      -0.00047864
H        4.00540224      -5.74435809       3.81713960       0.00021669      -0.00005236       0.00019932
H        4.04099753      -4.42829152       2.83103582      -0.00008087      -0.00022477       0.00017408
H        3.57925723      -5.87573487       2.23437650       0.00000191       0.00005814       0.00011341
