11
Properties=species:S:1:pos:R:3:forces:R:3 -1612.55793=T energy=-20590.109327116756 free_energy=-20590.109327116756 pbc="F F F"
S       -7.35357660      -5.89672107     -25.18495262       0.00003912       0.00008511       0.00009994
O       -7.22319711      -6.92231673     -26.18711117       0.00004148      -0.00009608      -0.00009298
O       -8.19124200      -4.73775178     -25.36393603      -0.00017047       0.00011837      -0.00004417
O       -7.84670071      -6.66290184     -23.84192150      -0.00024009       0.00002134       0.00019872
O       -5.92894096      -5.38903958     -24.74137496       0.00015644      -0.00002774      -0.00006919
H       -8.38221110      -6.04219628     -23.31913159       0.00016546      -0.00016846      -0.00013394
H       -5.36167735      -6.21016103     -24.50220687       0.00001826       0.00001077       0.00010666
N       -4.71395927      -7.68166249     -24.09071241       0.00036064       0.00061071       0.00031233
H       -5.31641872      -8.06567111     -23.36836058      -0.00026542      -0.00004910       0.00000420
H       -3.75815293      -7.70813091     -23.75297113       0.00025323       0.00007838       0.00019129
H       -4.78493296      -8.29932244     -24.89390230      -0.00035866      -0.00058340      -0.00057280
