11
Properties=species:S:1:pos:R:3:forces:R:3 -1612.27354=T energy=-20590.10932691402 free_energy=-20590.10932691402 pbc="F F F"
S       11.19363980      -8.93516926     -42.46622258       0.00025775       0.00013764      -0.00077885
O       12.22504896      -8.56563105     -43.40249082      -0.00051093      -0.00000763       0.00053835
O        9.79831531      -8.67186505     -42.70478526       0.00010037      -0.00003099       0.00002834
O       11.40357775     -10.45456693     -42.10370530       0.00013530      -0.00019288       0.00011031
O       11.53287989      -8.22350761     -41.04762593       0.00066028       0.00015131       0.00006028
H       10.74546172     -10.69385931     -41.35346156      -0.00015930       0.00008316      -0.00002577
H       12.46738641      -7.95533257     -41.05978744      -0.00052302      -0.00013288       0.00002814
N        9.66804780     -10.77783025     -40.09407869       0.00058106       0.00007990       0.00005902
H        9.97408386     -10.08972864     -39.41211282       0.00001547       0.00022256       0.00001422
H        8.75785259     -10.47677064     -40.42959356      -0.00035617       0.00009641      -0.00012615
H        9.55357406     -11.66598666     -39.61826569      -0.00020073      -0.00040659       0.00009212
