11
Properties=species:S:1:pos:R:3:forces:R:3 -1612.28579=T energy=-20590.153730354683 free_energy=-20590.153730354683 pbc="F F F"
S        7.35632676      -3.50004225     -39.64566912      -0.00009685       0.00023365      -0.00008593
O        6.84195194      -3.16683956     -40.95616222       0.00004250      -0.00018129       0.00025654
O        7.08225105      -2.65734261     -38.51257214       0.00014412      -0.00008574      -0.00004411
O        6.88361142      -5.01507434     -39.31051995       0.00010697      -0.00013226       0.00027928
O        8.89575044      -3.77490617     -39.70325591      -0.00000530       0.00005734      -0.00004489
H        5.91091659      -5.03750440     -39.29496476      -0.00021341       0.00023268      -0.00013305
H        9.08480891      -4.40932130     -40.48995383      -0.00016041      -0.00003384      -0.00003070
N        9.09359582      -5.50832211     -41.72230733       0.00022001      -0.00040428       0.00069842
H        9.98609223      -5.80666167     -42.10016131      -0.00001574       0.00029835      -0.00000682
H        8.53733166      -5.12714717     -42.48229380      -0.00010738      -0.00003037      -0.00056630
H        8.60368566      -6.32902968     -41.37865166       0.00008551       0.00004566      -0.00032270
