11
Properties=species:S:1:pos:R:3:forces:R:3 -1612.32972=T energy=-20590.153731165643 free_energy=-20590.153731165643 pbc="F F F"
S      -11.60638788       1.68308652     -11.14628016       0.00012369       0.00001617       0.00006504
O      -11.15477789       0.81624288     -10.09091941      -0.00016791       0.00009191      -0.00017142
O      -11.79406959       1.17744304     -12.48870456      -0.00007403      -0.00013435       0.00005627
O      -12.88001385       2.44764010     -10.65431609       0.00001878      -0.00008029       0.00001395
O      -10.61607717       2.96393567     -11.24519596       0.00028253      -0.00010601      -0.00001831
H      -13.17823387       3.09546436     -11.39492850      -0.00003459       0.00009022       0.00001253
H       -9.76256019       2.66572040     -11.60501674      -0.00013388       0.00016852       0.00007578
N      -13.36688144       4.11512509     -12.67997128      -0.00044686      -0.00058242      -0.00035333
H      -12.56305369       4.73599268     -12.67501069       0.00019997       0.00027978      -0.00004216
H      -14.20584137       4.68261712     -12.72951624       0.00032732      -0.00016919      -0.00002000
H      -13.30760438       3.55951404     -13.52857881      -0.00009492       0.00042564       0.00038183
