11
Properties=species:S:1:pos:R:3:forces:R:3 -1612.55725=T energy=-20590.15372974646 free_energy=-20590.15372974646 pbc="F F F"
S       -0.91059477      -4.26883773       1.16164728       0.00000005      -0.00002488       0.00006764
O       -0.11883606      -5.23526663       0.43217513       0.00006628      -0.00000989      -0.00000107
O       -2.11962132      -3.73247174       0.59621551      -0.00016367       0.00005722      -0.00002593
O       -1.23991795      -4.91024351       2.61465134      -0.00049058      -0.00056309      -0.00007778
O       -0.02212587      -3.08093454       1.65983568       0.00015002      -0.00010239      -0.00001313
H       -1.75753850      -5.72345549       2.48172155       0.00045114       0.00057802       0.00006052
H        0.82336603      -3.46750122       2.09898352      -0.00004631       0.00009292      -0.00003707
N        2.01223822      -4.34122030       2.84039483       0.00043952      -0.00004981      -0.00046781
H        2.31161080      -5.06762313       2.19614126      -0.00011218       0.00033274       0.00033778
H        1.57657943      -4.80685224       3.63098298      -0.00010969      -0.00018768       0.00023836
H        2.83606538      -3.85313318       3.17421008      -0.00018454      -0.00012310      -0.00008152
