11
Properties=species:S:1:pos:R:3:forces:R:3 -1612.27599=T energy=-20590.176067404384 free_energy=-20590.176067404384 pbc="F F F"
S       -9.00563560      -9.09748754       3.57059916       0.00008317      -0.00024241      -0.00011123
O       -7.69026713      -9.66431302       3.39458933      -0.00011754      -0.00037897      -0.00011516
O       -9.26228366      -7.76249377       3.08035470       0.00027263      -0.00006735       0.00018254
O      -10.11032795     -10.11062254       2.99269445      -0.00021440       0.00012577       0.00007177
O       -9.48057512      -9.23079164       5.05943422       0.00021136      -0.00012475       0.00005367
H      -10.00567541     -10.17865654       2.02614203      -0.00011820       0.00031865      -0.00007463
H       -8.95483575      -8.55198607       5.60453868       0.00032090      -0.00000258       0.00000417
N       -8.05596922      -7.22584141       6.25014081      -0.00009429       0.00029002      -0.00029738
H       -7.05470395      -7.38155104       6.17915269       0.00000125       0.00042364       0.00005978
H       -8.28099048      -6.43508262       5.65154213      -0.00007382      -0.00025341       0.00006647
H       -8.26742387      -6.96379992       7.20744965      -0.00027102      -0.00008871       0.00015995
