11
Properties=species:S:1:pos:R:3:forces:R:3 -1612.52170=T energy=-20590.10930582899 free_energy=-20590.10930582899 pbc="F F F"
S       11.56588677     -14.90169474     -37.71694166      -0.00004001      -0.00000571       0.00000733
O       11.15711731     -16.27424582     -37.56854543       0.00017846       0.00033450       0.00009209
O       12.59040835     -14.49224171     -38.64414277      -0.00015265       0.00006628       0.00010902
O       10.21226263     -14.08292393     -38.08007547       0.00013196      -0.00004911       0.00002746
O       11.92556009     -14.28846930     -36.31043690      -0.00012407      -0.00009132      -0.00001901
H       10.45917949     -13.31866101     -38.62810058      -0.00016358      -0.00048009      -0.00008629
H       11.14326487     -14.47909880     -35.67384885       0.00004927       0.00004422       0.00007409
N        9.71666817     -14.83032153     -34.90500354       0.00014232      -0.00019773       0.00009216
H        9.60064039     -14.52830146     -33.94395262      -0.00018510       0.00010028      -0.00018126
H        8.98601830     -14.39879568     -35.46378414       0.00036095       0.00050990       0.00060266
H        9.56464568     -15.83370277     -34.94419230      -0.00019749      -0.00023142      -0.00071820
