11
Properties=species:S:1:pos:R:3:forces:R:3 -1612.31407=T energy=-20590.17630907121 free_energy=-20590.17630907121 pbc="F F F"
S      -13.35298561       0.41709057     -17.77114345       0.00049108      -0.00019448       0.00039213
O      -13.43374396      -0.78010250     -18.57597671      -0.00009437       0.00013804      -0.00052822
O      -13.27156996       1.69698823     -18.43291158      -0.00017924       0.00031149       0.00039269
O      -14.55356735       0.43569754     -16.70437444      -0.00033501       0.00017729      -0.00052992
O      -12.22504156       0.27600349     -16.69176673      -0.00010353       0.00007731       0.00017384
H      -15.40115042       0.50747286     -17.18011599       0.00017756      -0.00015239       0.00021541
H      -11.34434836       0.17648500     -17.19253072       0.00014216      -0.00007571      -0.00012911
N      -10.03643302      -0.09588210     -18.27656077      -0.00021389       0.00021038      -0.00022359
H       -9.26532706      -0.63275429     -17.89278663       0.00040418       0.00015920       0.00031385
H      -10.44317380      -0.63422363     -19.03786199       0.00009617      -0.00043063       0.00033680
H       -9.65736574       0.75739004     -18.67631631      -0.00038515      -0.00022113      -0.00041378
