11
Properties=species:S:1:pos:R:3:forces:R:3 -1612.28477=T energy=-20589.563764716215 free_energy=-20589.563764716215 pbc="F F F"
S        7.56609087       8.63123289     -40.27946230       0.00044901       0.00015987      -0.00009805
O        8.37219057       7.48062998     -40.60456190      -0.00013602      -0.00072384       0.00026934
O        6.73476834       9.31412683     -41.22830330      -0.00000048      -0.00012136      -0.00016624
O        6.66804551       8.19059801     -39.01903454      -0.00040556       0.00032228       0.00010216
O        8.51503465       9.74704965     -39.62006409      -0.00037605      -0.00003968      -0.00008139
H        5.87190821       8.74864141     -39.00147737       0.00006476       0.00014959      -0.00000878
H        9.20632034       9.30352725     -39.09834561       0.00007159      -0.00048371      -0.00008938
N        8.20311070       5.82423713     -43.14735778      -0.00029885      -0.00017266       0.00013110
H        9.16184774       5.83525988     -43.48279167      -0.00026652       0.00031867      -0.00090384
H        8.03067360       4.87502774     -42.82926180       0.00045513       0.00027232       0.00077002
H        8.18029823       6.41654995     -42.32028112       0.00044291       0.00031856       0.00007499
