11
Properties=species:S:1:pos:R:3:forces:R:3 -1612.55784=T energy=-20590.153731267015 free_energy=-20590.153731267015 pbc="F F F"
S      -10.36920888       0.23434354     -17.49075500       0.00009520       0.00027785       0.00033686
O      -10.38107945      -0.62102030     -18.65746222       0.00017466       0.00018764      -0.00008845
O      -10.54540048       1.65611014     -17.62004523       0.00006044      -0.00060499       0.00002503
O      -11.47109627      -0.34755023     -16.45231815       0.00050603       0.00039810       0.00009701
O       -9.10109785      -0.03431796     -16.61415104      -0.00037965      -0.00013040      -0.00033994
H      -12.34542999      -0.30808487     -16.87758705      -0.00046967      -0.00014485      -0.00009652
H       -8.99929014      -1.04988132     -16.49002848      -0.00002747       0.00012236       0.00009423
N       -9.13564947      -2.68975959     -16.35333944      -0.00085668       0.00002851       0.00049539
H       -8.37323254      -3.20601163     -15.92845651       0.00058901      -0.00016998      -0.00015602
H       -9.97767361      -2.86430775     -15.81278746       0.00005803       0.00026556      -0.00011296
H       -9.29637556      -3.06664078     -17.28309475       0.00025015      -0.00023004      -0.00025481
