11
Properties=species:S:1:pos:R:3:forces:R:3 -1612.55687=T energy=-20590.109326711277 free_energy=-20590.109326711277 pbc="F F F"
S       -6.25667044      -6.97423897       6.07493293      -0.00021702       0.00046195       0.00002474
O       -6.39998459      -7.38094317       4.70117615      -0.00002741      -0.00009716      -0.00015664
O       -7.14308986      -6.02581783       6.70079680      -0.00002298      -0.00025672      -0.00002158
O       -6.30618712      -8.34605982       6.94075054       0.00002742      -0.00007671       0.00012780
O       -4.78001033      -6.49481359       6.34635422       0.00027117      -0.00009254       0.00010856
H       -6.68005152      -8.13903312       7.81408546      -0.00001672       0.00008605      -0.00004395
H       -4.14365021      -7.22327596       6.00335987      -0.00003649      -0.00006457      -0.00003276
N       -3.36085745      -8.58395396       5.46521029       0.00015949       0.00025956      -0.00020038
H       -3.71236136      -9.35423616       6.02676658       0.00031862       0.00006223      -0.00022388
H       -3.64765381      -8.76176642       4.50718458       0.00003005      -0.00006831       0.00031900
H       -2.34760721      -8.60164740       5.50214836      -0.00048593      -0.00021356       0.00009865
