11
Properties=species:S:1:pos:R:3:forces:R:3 -1612.55720=T energy=-20590.109327116756 free_energy=-20590.109327116756 pbc="F F F"
S       -4.67247531      -0.71610123      -1.32278140       0.00004805       0.00002667       0.00002986
O       -3.26920397      -1.03722178      -1.29299307      -0.00009346       0.00001919      -0.00001127
O       -5.65272174      -1.57384492      -1.93949123       0.00003779       0.00004101       0.00002673
O       -5.10229613      -0.50602799       0.22805594       0.00019874       0.00005841      -0.00012124
O       -4.88339920       0.73618287      -1.89765405      -0.00003192      -0.00009399      -0.00000231
H       -6.03788593      -0.75458315       0.31877423      -0.00018923      -0.00005372       0.00003865
H       -4.26665079       1.37292484      -1.38053656       0.00004362       0.00003432       0.00004227
N       -3.26266651       2.17947295      -0.33383726       0.00024496      -0.00034414      -0.00021866
H       -2.33876466       1.76104745      -0.38883347      -0.00020587       0.00017950      -0.00000089
H       -3.16387787       3.18310208      -0.44015984       0.00003061       0.00009155       0.00002136
H       -3.61658513       1.99266814       0.60000445      -0.00008352       0.00004101       0.00019553
