11
Properties=species:S:1:pos:R:3:forces:R:3 -1612.55560=T energy=-20590.153731064274 free_energy=-20590.153731064274 pbc="F F F"
S      -11.86987230       4.38961451     -11.87313847       0.00023873      -0.00010710      -0.00010131
O      -10.84367011       4.10237064     -10.90692747      -0.00029373       0.00008512      -0.00010276
O      -11.96181553       5.69622974     -12.48739158       0.00002992       0.00001454       0.00013995
O      -11.86470387       3.26170850     -12.95779474      -0.00002478       0.00002551       0.00008357
O      -13.31963439       4.05493170     -11.22718912       0.00008726      -0.00022325       0.00006098
H      -12.62430722       3.44740115     -13.62538032       0.00005880      -0.00007614      -0.00007655
H      -13.51506981       4.72304927     -10.54726432      -0.00003559       0.00026069       0.00016961
N      -13.96632884       3.90914620     -14.46925630      -0.00056636       0.00020149      -0.00008232
H      -14.17722699       3.43617878     -15.34113326       0.00011649       0.00006941      -0.00006551
H      -13.88733221       4.90440683     -14.65783073      -0.00007315      -0.00031975       0.00002328
H      -14.75643238       3.78763705     -13.84264472       0.00046237       0.00006969      -0.00004895
