11
Properties=species:S:1:pos:R:3:forces:R:3 -1612.31996=T energy=-20590.153731064274 free_energy=-20590.153731064274 pbc="F F F"
S       -2.80181657      -3.80303946      -1.05305158       0.00009668       0.00019894      -0.00003419
O       -1.93404781      -4.20462237      -2.13873004       0.00003207       0.00001657      -0.00029397
O       -4.13686591      -3.33530733      -1.31384946       0.00026774      -0.00015974       0.00010610
O       -2.86441738      -5.03647442      -0.00149327       0.00006306       0.00016186       0.00062564
O       -2.08560342      -2.77350028      -0.11721281      -0.00028234       0.00017601      -0.00002073
H       -3.24339982      -5.80906090      -0.45574717      -0.00030577      -0.00033649      -0.00035794
H       -1.14556923      -3.12879554       0.10002519       0.00012391      -0.00004181      -0.00008578
N        0.24602409      -3.97303519       0.37856617      -0.00004153      -0.00048979      -0.00032588
H       -0.01974267      -4.79930806       0.90611175      -0.00009757      -0.00007457       0.00005892
H        0.59970639      -4.29438567      -0.51808329      -0.00011112       0.00033977       0.00035852
H        1.00241470      -3.51150876       0.87172244       0.00025477       0.00020923      -0.00003082
