11
Properties=species:S:1:pos:R:3:forces:R:3 -1612.45298=T energy=-20590.10961723859 free_energy=-20590.10961723859 pbc="F F F"
S       -1.96775085      -6.01654156       1.28647318       0.00016975      -0.00067404       0.00032161
O       -1.49166676      -7.26172885       1.82005423      -0.00025070       0.00053859      -0.00018942
O       -1.41103776      -5.46460477       0.06976792       0.00003914       0.00006044      -0.00016654
O       -3.55741216      -6.15370564       1.09741818       0.00033343      -0.00017022       0.00029773
O       -1.95510525      -4.90180690       2.40626406      -0.00016117      -0.00009485      -0.00000344
H       -3.83962220      -5.53380364       0.40123491      -0.00029127       0.00024745      -0.00034267
H       -0.98982555      -4.59465318       2.50844390       0.00014541       0.00000937       0.00010831
N        0.63863386      -4.08215299       2.38171107      -0.00042380       0.00000916       0.00032171
H        0.69394561      -3.07959763       2.23180737       0.00009510       0.00049698      -0.00006746
H        0.97432496      -4.53771960       1.53629262       0.00020617      -0.00030044      -0.00033797
H        1.27036708      -4.32368127       3.13850456       0.00013801      -0.00012231       0.00005805
