11
Properties=species:S:1:pos:R:3:forces:R:3 -1612.54459=T energy=-20590.153730760165 free_energy=-20590.153730760165 pbc="F F F"
S       11.72815186     -16.07260587     -37.18844406       0.00018921      -0.00029826       0.00007368
O       11.85876839     -16.28636403     -38.60491433      -0.00015004       0.00006711       0.00016379
O       12.64792351     -15.20626695     -36.48380601      -0.00045860      -0.00031674      -0.00017524
O       10.24474110     -15.68416357     -36.87645041       0.00055790       0.00001067      -0.00027020
O       11.73525462     -17.50622558     -36.42961912       0.00058570       0.00034660      -0.00009864
H       10.14417851     -15.57010633     -35.85960734       0.00003381      -0.00006763       0.00031439
H       12.63452151     -17.87496111     -36.47719696      -0.00061421       0.00025670      -0.00004074
N       10.23090057     -15.56596772     -34.21060876       0.00032902       0.00071641       0.00058961
H       10.40701125     -16.52593241     -33.92937094      -0.00002861      -0.00044072       0.00000519
H        9.43540386     -15.22198174     -33.68409302       0.00027260      -0.00003478      -0.00025710
H       11.04783786     -15.02391336     -33.94385751      -0.00071672      -0.00023940      -0.00030467
