11
Properties=species:S:1:pos:R:3:forces:R:3 -1612.55718=T energy=-20590.109327218128 free_energy=-20590.109327218128 pbc="F F F"
S        9.64209351     -12.09014985     -40.57950940      -0.00011963       0.00005200       0.00052596
O       10.62892889     -12.22149004     -41.62154042       0.00017500      -0.00010473      -0.00045311
O        8.37488432     -11.43916743     -40.78827650       0.00006151      -0.00011310      -0.00003809
O        9.41984677     -13.51921164     -39.95302894      -0.00028348       0.00027829       0.00012329
O       10.33298167     -11.30627051     -39.33766417      -0.00019128       0.00005663       0.00006829
H        8.80564980     -13.41421411     -39.13754299       0.00027983      -0.00006197      -0.00025871
H       11.29766769     -11.35373118     -39.44932758       0.00013473      -0.00006264      -0.00001566
N        7.89706444     -12.94976513     -37.82886291       0.00035100       0.00054345       0.00046527
H        7.09070083     -12.43186503     -38.16538606       0.00015825      -0.00000942      -0.00003386
H        8.46984722     -12.29587482     -37.30292698      -0.00056708      -0.00053421      -0.00048862
H        7.57027422     -13.66790519     -37.19181657       0.00000148      -0.00004435       0.00010538
