11
Properties=species:S:1:pos:R:3:forces:R:3 -1612.50686=T energy=-20590.106810700123 free_energy=-20590.106810700123 pbc="F F F"
S      -13.27450580       2.40596218     -13.18206844      -0.00048084       0.00057436      -0.00015300
O      -13.00744031       1.82990584     -11.88845651       0.00017014      -0.00033540       0.00092483
O      -13.11287100       1.66964497     -14.40773530       0.00003143      -0.00051152      -0.00079226
O      -14.70837059       3.05649960     -13.12504917      -0.00004160       0.00005469      -0.00022101
O      -12.33867212       3.72243516     -13.34230072       0.00023211       0.00013912      -0.00030963
H      -14.84843576       3.59004612     -13.99087632       0.00002424      -0.00017393       0.00014634
H      -12.05970794       4.00462224     -12.45459869       0.00011391       0.00017752       0.00037907
N      -14.80609204       4.52082643     -15.35950678      -0.00030192       0.00019632       0.00056925
H      -13.81752946       4.64398919     -15.56044148       0.00042504       0.00003478      -0.00015683
H      -15.20821985       5.44213253     -15.21978631      -0.00002274       0.00004441      -0.00002187
H      -15.23704187       4.10922414     -16.18116823      -0.00014982      -0.00020042      -0.00036468
