11
Properties=species:S:1:pos:R:3:forces:R:3 -1612.28294=T energy=-20589.595742690843 free_energy=-20589.595742690843 pbc="F F F"
S        7.18652598       7.37283535     -41.48730120      -0.00005291       0.00036230       0.00006559
O        7.18292200       6.33842304     -42.48673338       0.00005563       0.00008833      -0.00007248
O        6.98389960       8.76904235     -41.76977403       0.00018753      -0.00025499       0.00001571
O        6.11332207       6.92178085     -40.37384769      -0.00013180      -0.00002646      -0.00003576
O        8.56022306       7.28515277     -40.65305613      -0.00009906       0.00014145      -0.00007699
H        5.83800449       7.71565020     -39.88478219       0.00014289      -0.00013405       0.00002199
H        8.80722308       6.34810889     -40.57218751      -0.00005907      -0.00012297       0.00005082
N        8.74469647       8.52260600     -44.56302457       0.00037117       0.00065636      -0.00018181
H        8.00774768       8.70775775     -45.23853175      -0.00019974      -0.00014447       0.00003946
H        8.62274531       7.55101046     -44.28439767      -0.00010278      -0.00067511       0.00019984
H        8.50258985       9.06545502     -43.73613255      -0.00011186       0.00010961      -0.00002646
