10
Properties=species:S:1:pos:R:3:forces:R:3 -1708.40668=T energy=-21130.244480576886 free_energy=-21130.244480576886 pbc="F F F"
S       -7.22543423     -12.74964554     -20.27112673      -0.00005878      -0.00001869      -0.00001091
O       -6.18565444     -13.69914755     -20.56328145       0.00014400      -0.00006783      -0.00000583
O       -7.93898032     -12.03439877     -21.30473901      -0.00003350       0.00002915      -0.00000978
O       -8.27248885     -13.46225412     -19.30688367      -0.00009078       0.00009775      -0.00002486
O       -6.61919484     -11.60044027     -19.31789391      -0.00008726       0.00007698      -0.00007674
H       -9.17638022     -13.02923752     -19.40844644       0.00004131      -0.00005543       0.00003225
H       -6.01674698     -12.01996962     -18.67974830       0.00007204      -0.00007795       0.00007979
O      -10.57124555     -12.28407662     -20.04998260       0.00009765       0.00019788       0.00017890
H      -10.03691804     -11.74147608     -20.64950165       0.00002662       0.00005995      -0.00000057
H      -10.96246293     -12.95189978     -20.62880139      -0.00011128      -0.00024171      -0.00016224
