10
Properties=species:S:1:pos:R:3:forces:R:3 -1708.27654=T energy=-21130.009158342666 free_energy=-21130.009158342666 pbc="F F F"
S       -8.64565517       4.52728180      -0.68186492       0.00006238      -0.00002136       0.00006242
O       -9.02053129       3.57417967       0.32023426       0.00023059       0.00030160      -0.00027442
O       -9.56069052       5.49296819      -1.24449822      -0.00001094      -0.00004494      -0.00000179
O       -7.36494522       5.30840243      -0.11189269      -0.00016281      -0.00018644       0.00008054
O       -8.01048324       3.75219365      -1.93759314       0.00002031      -0.00070545       0.00055382
H       -7.19986541       6.09019971      -0.66702292       0.00002979       0.00004758      -0.00007717
H       -7.66652810       2.89491257      -1.63266978      -0.00016458       0.00060540      -0.00033821
O      -11.45319401       7.28619243      -2.22455274      -0.00001797      -0.00019936       0.00021520
H      -11.16268190       6.65305392      -1.55709626      -0.00001097       0.00023960      -0.00065736
H      -10.71955852       7.24621602      -2.84807408       0.00002424      -0.00003669       0.00043705
