10
Properties=species:S:1:pos:R:3:forces:R:3 -1708.28679=T energy=-21130.00907554846 free_energy=-21130.00907554846 pbc="F F F"
S       -5.54844730       6.63892860      -0.36143373       0.00003858       0.00014645       0.00005174
O       -4.98924029       6.70762969      -1.67888496       0.00009608       0.00008915      -0.00023401
O       -6.96832789       6.59384997      -0.10017201      -0.00009078      -0.00000972      -0.00003791
O       -4.85617252       5.38569208       0.36318386       0.00028235       0.00012676      -0.00035174
O       -4.98655357       7.86183804       0.51598839      -0.00000140       0.00011173       0.00003096
H       -5.34434137       5.18530401       1.18054430      -0.00037412      -0.00022197       0.00022372
H       -4.14108880       8.15554294       0.13502312      -0.00007387      -0.00010039       0.00028400
O       -9.73378936       6.48894964       0.20544749      -0.00040556       0.00029176       0.00037058
H       -9.33245520       6.54421168       1.07978612       0.00042444       0.00049304      -0.00021596
H       -8.95122049       6.51014476      -0.35833812       0.00010426      -0.00092678      -0.00012136
