10
Properties=species:S:1:pos:R:3:forces:R:3 -1708.30856=T energy=-21130.267734419693 free_energy=-21130.267734419693 pbc="F F F"
S       -0.21398992      -8.47784004     -31.87233509       0.00000828       0.00023293      -0.00021643
O        0.81368383      -7.66676630     -32.46889737      -0.00017548      -0.00018454       0.00012136
O       -1.53382917      -8.58654828     -32.43487848       0.00021482       0.00003874       0.00011771
O        0.42177133      -9.91868747     -31.63433773      -0.00012720       0.00007242       0.00003777
O       -0.45082815      -7.99957011     -30.34409734       0.00000075      -0.00001755      -0.00012977
H       -0.22887806     -10.49379648     -31.12879696       0.00006042      -0.00002468       0.00003330
H        0.40129950      -8.04705078     -29.87868627       0.00001504      -0.00003581       0.00001904
O       -1.45554101     -11.14792235     -30.15111857       0.00016902      -0.00032697      -0.00002679
H       -2.22127430     -10.99735642     -30.72221110      -0.00018265      -0.00000194      -0.00019285
H       -1.50440926     -10.42411154     -29.51188014       0.00001703       0.00024718       0.00023665
