10
Properties=species:S:1:pos:R:3:forces:R:3 -1708.41001=T energy=-21130.268706408933 free_energy=-21130.268706408933 pbc="F F F"
S       -9.09179657     -12.56866117     -20.39639599      -0.00001058       0.00012052       0.00012069
O       -8.43473912     -13.19582040     -21.51746547       0.00004685      -0.00001919      -0.00004661
O       -9.58554350     -11.21915886     -20.44528085       0.00003338      -0.00018930       0.00002098
O      -10.30507025     -13.56512497     -20.02508817      -0.00025517       0.00011390       0.00024042
O       -8.17893550     -12.68683682     -19.09789892       0.00001130       0.00005538      -0.00005095
H      -10.73435336     -13.23555552     -19.21766306       0.00018528      -0.00009861      -0.00026780
H       -7.66475210     -13.55107776     -19.13443678       0.00000414      -0.00001424      -0.00004665
O       -6.93523297     -15.01690247     -19.60182072      -0.00003451      -0.00001103      -0.00012773
H       -7.05027345     -14.84097180     -20.54714110       0.00004564       0.00005409       0.00013557
H       -7.58439535     -15.70683545     -19.41007537      -0.00002640      -0.00001141       0.00002228
