10
Properties=species:S:1:pos:R:3:forces:R:3 -1708.22439=T energy=-21130.05779969595 free_energy=-21130.05779969595 pbc="F F F"
S       -0.75520131      -3.64199967     -32.87133590      -0.00013120      -0.00056043       0.00039284
O       -1.21791879      -4.32192513     -34.06701113       0.00019744       0.00021625       0.00041008
O       -1.16965066      -2.30805922     -32.56346286       0.00011093       0.00008559      -0.00006342
O       -1.01905553      -4.61749601     -31.61767443       0.00032976       0.00016916      -0.00049737
O        0.83569316      -3.68309970     -32.81462899      -0.00051394      -0.00051619      -0.00020143
H       -1.97268608      -4.80654809     -31.56311198       0.00004690       0.00019874      -0.00018495
H        1.14246200      -4.55336119     -33.12464623      -0.00001027       0.00046595       0.00022100
O       -2.17500648      -5.62118691     -36.30762566       0.00010080       0.00004959       0.00043868
H       -1.99767142      -4.79984709     -35.83243937      -0.00002592      -0.00062126      -0.00020370
H       -1.86546021      -6.26856967     -35.66420368      -0.00010444       0.00051246      -0.00031169
