10
Properties=species:S:1:pos:R:3:forces:R:3 -1708.32551=T energy=-21130.267731125157 free_energy=-21130.267731125157 pbc="F F F"
S       -1.13017782      -0.17822846     -15.34713959      -0.00002807       0.00017208       0.00003929
O        0.30205663      -0.19984339     -15.21281935      -0.00002027      -0.00014570      -0.00006709
O       -1.84437040      -1.14134246     -16.14242768      -0.00039804       0.00026786       0.00018400
O       -1.72633799      -0.10661520     -13.87190304      -0.00011585      -0.00002736      -0.00002033
O       -1.58986830       1.26222142     -15.92532945      -0.00007347      -0.00010552      -0.00010300
H       -2.72316729       0.01130817     -13.91745482      -0.00013614      -0.00003333       0.00008282
H       -1.24523402       1.94907546     -15.32995700       0.00059702       0.00036765       0.00003751
O       -4.33709352       0.36480787     -14.31646069       0.00012345      -0.00002050       0.00023787
H       -4.15755129       1.10725319     -14.90929895      -0.00007398       0.00029024      -0.00030307
H       -4.52581204      -0.36640495     -14.92048911       0.00012519      -0.00076556      -0.00008801
