10
Properties=species:S:1:pos:R:3:forces:R:3 -1708.23548=T energy=-21130.24448017141 free_energy=-21130.24448017141 pbc="F F F"
S        0.71057503       3.63273755     -28.51979205       0.00021460       0.00028070       0.00003428
O        1.56665994       4.61375928     -29.13035577      -0.00025463      -0.00027823       0.00004166
O       -0.69482518       3.52030673     -28.83804488       0.00017452       0.00001687       0.00014879
O        1.40432236       2.21084798     -28.69542541      -0.00002021      -0.00001240      -0.00004050
O        0.75659897       3.83370730     -26.92155045       0.00000454      -0.00004200      -0.00017202
H        0.70395431       1.48701860     -28.67593639       0.00004110      -0.00000040       0.00005143
H        1.67058422       4.04879139     -26.66746806      -0.00014890      -0.00003342      -0.00002823
O       -0.73357404       0.59425852     -28.89754856       0.00016291      -0.00010427      -0.00012293
H       -0.79094834       0.45392826     -29.85206371       0.00001208      -0.00001277       0.00005354
H       -1.27680873       1.38240267     -28.74569470      -0.00018581       0.00018589       0.00003387
