10
Properties=species:S:1:pos:R:3:forces:R:3 -1708.36687=T energy=-21130.268707321266 free_energy=-21130.268707321266 pbc="F F F"
S       -8.21351470      -7.58204328     -28.92903397       0.00002547      -0.00015112       0.00031491
O       -9.63118492      -7.75103200     -29.13762919       0.00008821       0.00004268      -0.00001097
O       -7.47864792      -6.47214346     -29.47254348       0.00009489       0.00022542      -0.00026560
O       -8.03137488      -7.60588486     -27.32619062      -0.00015432      -0.00005636       0.00013250
O       -7.44161562      -8.90780198     -29.35319068      -0.00004728      -0.00000913      -0.00003567
H       -7.08033187      -7.58183950     -27.12679135      -0.00002086      -0.00000618      -0.00012597
H       -8.02472118      -9.70466116     -29.15918569       0.00002687      -0.00000297      -0.00004539
O       -9.31225555     -10.75153440     -28.77769986       0.00000763       0.00003105       0.00008121
H       -9.98663798     -10.07396826     -28.93239231       0.00000516      -0.00003123      -0.00000928
H       -9.29458683     -10.85093124     -27.81645483      -0.00002590      -0.00004210      -0.00003569
