10
Properties=species:S:1:pos:R:3:forces:R:3 -1708.39646=T energy=-21130.244479664554 free_energy=-21130.244479664554 pbc="F F F"
S       -5.55665285       3.71749723       1.19300328      -0.00050944       0.00020251       0.00034180
O       -6.74029333       2.95191051       1.47746185       0.00016141       0.00006670      -0.00012213
O       -4.32282711       3.10764735       0.75160712       0.00001395       0.00010847      -0.00008395
O       -5.96299805       4.87486634       0.17844018       0.00010964      -0.00024942       0.00003469
O       -5.15511272       4.55254739       2.51145414       0.00018834      -0.00014655      -0.00020556
H       -5.15664734       5.15592312      -0.35599438       0.00003999      -0.00003343      -0.00000708
H       -5.97223642       4.87769363       2.92710508      -0.00010174       0.00002690       0.00012795
O       -3.70310162       5.15071656      -1.25028654      -0.00004627       0.00025827       0.00022114
H       -3.31396153       4.48549063      -0.66259024       0.00017951      -0.00006297       0.00006834
H       -3.91111661       4.65615378      -2.05415439      -0.00003557      -0.00017058      -0.00037524
