10
Properties=species:S:1:pos:R:3:forces:R:3 -1708.40641=T energy=-21130.244480779627 free_energy=-21130.244480779627 pbc="F F F"
S       -3.13301365       1.67035654     -25.38577094       0.00010328      -0.00013413      -0.00001345
O       -2.77450530       0.59177421     -26.27862832       0.00024474      -0.00022066      -0.00017750
O       -4.01681234       2.73606236     -25.77462303      -0.00025725       0.00059187      -0.00029320
O       -3.74638175       0.94252783     -24.08544025      -0.00009699      -0.00030079       0.00040546
O       -1.80787962       2.33135984     -24.80185109       0.00015572       0.00012127      -0.00003155
H       -4.12835352       1.62422337     -23.50615873       0.00001101       0.00004295       0.00004709
H       -1.03561777       1.69314153     -24.90730289      -0.00015052      -0.00015234       0.00015740
O        0.04913398       0.52224521     -25.51133143       0.00007051       0.00000441       0.00059247
H        0.43913271       0.92994927     -26.29601727       0.00033242       0.00043455      -0.00063272
H       -0.68061143      -0.00909666     -25.86413981      -0.00041287      -0.00038719      -0.00005410
