10
Properties=species:S:1:pos:R:3:forces:R:3 -1708.40069=T energy=-21130.244479563185 free_energy=-21130.244479563185 pbc="F F F"
S        0.78723114       1.14154833     -30.40728148      -0.00023299      -0.00009152       0.00021076
O        1.77821114       1.41245228     -31.41356709       0.00037181       0.00004381      -0.00050294
O       -0.62108623       1.39196482     -30.61464050      -0.00020516      -0.00005700       0.00004104
O        0.98795350      -0.36210214     -29.92497252      -0.00010306      -0.00021699       0.00000417
O        1.16268961       1.97321952     -29.07905372       0.00072883       0.00017475       0.00028989
H        0.11866406      -0.72159762     -29.56450873       0.00010107       0.00008731      -0.00000966
H        2.12873897       1.94995356     -28.96763458      -0.00064143       0.00003732       0.00002554
O       -1.53453085      -1.07337836     -29.32839787       0.00011039       0.00024732       0.00021539
H       -1.79293743      -1.57688289     -30.11184195      -0.00008036      -0.00000720      -0.00019209
H       -1.78561172      -0.16255472     -29.54451932      -0.00004913      -0.00021754      -0.00008224
