10
Properties=species:S:1:pos:R:3:forces:R:3 -1708.22355=T energy=-21130.00916125706 free_energy=-21130.00916125706 pbc="F F F"
S       -3.35761701       4.01950896      -7.25257172      -0.00002244      -0.00013316      -0.00013884
O       -3.92551603       3.04756078      -6.36604412      -0.00001591       0.00006378      -0.00002384
O       -3.30459335       3.85468602      -8.68659164      -0.00003251       0.00001723       0.00012624
O       -4.08151301       5.41369436      -6.92479528       0.00003128       0.00009261      -0.00007430
O       -1.84868259       4.33196461      -6.79813320       0.00008249      -0.00003029       0.00017868
H       -3.87152895       6.05105345      -7.62928810       0.00000909      -0.00004984       0.00008460
H       -1.75737334       4.11788473      -5.85366403      -0.00003281       0.00003274      -0.00011919
O       -3.28316423       3.37818922     -11.43060345      -0.00020579      -0.00048756      -0.00008410
H       -2.64450324       4.07322417     -11.23666731       0.00021543       0.00052248       0.00003865
H       -3.61166000       3.17759497     -10.54596011      -0.00002890      -0.00002790       0.00001215
