10
Properties=species:S:1:pos:R:3:forces:R:3 -1708.30091=T energy=-21130.267734419693 free_energy=-21130.267734419693 pbc="F F F"
S       -2.17946921      -7.81694999     -38.45729557      -0.00026761       0.00019724       0.00016573
O       -1.19131057      -8.65515198     -37.83180421       0.00026488      -0.00023484      -0.00014412
O       -2.41891997      -7.83473861     -39.87581006      -0.00004554       0.00001127      -0.00011230
O       -3.55963352      -8.14881231     -37.67931531      -0.00013247       0.00009630      -0.00014246
O       -1.97075815      -6.29179937     -38.04832190       0.00010950      -0.00007310      -0.00017635
H       -4.22982340      -7.50694317     -37.96882989       0.00017123      -0.00005895       0.00024935
H       -1.89588296      -6.21909130     -37.04893698       0.00008234      -0.00005580       0.00010747
O       -1.96237201      -6.40453190     -35.36087471       0.00004023       0.00015339      -0.00002450
H       -1.28378857      -7.08333726     -35.24284199       0.00000651       0.00016570       0.00019131
H       -2.78996287      -6.90305588     -35.32234211      -0.00022912      -0.00020114      -0.00011400
