10
Properties=species:S:1:pos:R:3:forces:R:3 -1708.32798=T energy=-21130.267773751373 free_energy=-21130.267773751373 pbc="F F F"
S       -1.45300545       1.90658389     -34.44448958      -0.00001462      -0.00005189      -0.00012807
O       -0.09026835       1.46689240     -34.58075713      -0.00008249      -0.00005817       0.00005404
O       -1.91904955       3.15197842     -34.99352858      -0.00001800       0.00017393      -0.00002047
O       -2.34406327       0.69401633     -35.04256248       0.00004609      -0.00015974      -0.00010453
O       -1.90888729       1.88088115     -32.91891460      -0.00003767       0.00001521       0.00013999
H       -3.27796427       0.88314248     -34.84889049       0.00004812       0.00005260       0.00006388
H       -1.71315544       0.97864386     -32.52243572       0.00001710      -0.00000059       0.00003516
O       -1.46151856      -0.66798622     -32.18221057      -0.00011015       0.00026286       0.00026710
H       -0.51703090      -0.76963495     -32.36214298       0.00035421      -0.00011479       0.00001796
H       -1.88374103      -1.01360329     -32.98050248      -0.00020269      -0.00011950      -0.00032511
