10
Properties=species:S:1:pos:R:3:forces:R:3 -1708.39870=T energy=-21130.244475913853 free_energy=-21130.244475913853 pbc="F F F"
S       -0.48354652       1.38337358     -14.78273351       0.00001945      -0.00007182      -0.00004286
O        0.52426372       0.35872105     -14.83356458       0.00008035       0.00006497       0.00008619
O       -0.94411385       2.08084934     -15.96198133       0.00003231      -0.00013053      -0.00010997
O       -1.73669221       0.79008790     -14.00083541       0.00003135      -0.00018179      -0.00011268
O        0.01621483       2.54552130     -13.78450086      -0.00005940      -0.00006671       0.00003280
H       -2.57583051       1.26435716     -14.29405068       0.00002337      -0.00006055       0.00003429
H        0.46967577       2.12711617     -13.03248551      -0.00025554       0.00019144      -0.00012312
O       -3.77432245       2.04463874     -15.22412478      -0.00000402       0.00004485       0.00016470
H       -4.09178497       1.36631471     -15.83501405      -0.00002874       0.00009146       0.00001324
H       -3.10323331       2.52177024     -15.73534636       0.00016113       0.00011855       0.00005743
