10
Properties=species:S:1:pos:R:3:forces:R:3 -1708.21597=T energy=-21130.048798417694 free_energy=-21130.048798417694 pbc="F F F"
S       -0.64448001       1.40862257     -13.17629680      -0.00021799      -0.00031829      -0.00022944
O       -1.05239777       0.36285236     -14.09462626       0.00016806       0.00000954      -0.00013769
O       -0.89187080       2.78793322     -13.46476781      -0.00001518      -0.00039077       0.00021443
O       -1.20060416       1.03442754     -11.71169975      -0.00043488       0.00017226       0.00007004
O        0.90405943       1.25108583     -12.83894414      -0.00001931       0.00014764      -0.00011453
H       -2.17362558       1.01350241     -11.74297788       0.00035577       0.00003271       0.00021863
H        1.11749360       0.30516633     -12.75537906       0.00028785       0.00019547      -0.00012130
O       -1.95623485      -1.41698181     -15.98031436      -0.00010220      -0.00040612      -0.00029764
H       -1.77381983      -1.29562638     -15.04068279      -0.00079194       0.00030607       0.00030566
H       -1.71641762      -0.54522742     -16.31360920       0.00076979       0.00025165       0.00009182
