10
Properties=species:S:1:pos:R:3:forces:R:3 -1708.22435=T energy=-21130.009155478954 free_energy=-21130.009155478954 pbc="F F F"
S       -4.26121373      -0.65571414     -15.65426016       0.00003865      -0.00024268       0.00014129
O       -3.89146466      -0.44048957     -17.03385962       0.00017488      -0.00037256      -0.00039208
O       -5.01166343       0.28856935     -14.88075902      -0.00023139       0.00029999      -0.00036860
O       -5.00962569      -2.07701983     -15.62453610       0.00014848       0.00005209      -0.00007361
O       -2.93301280      -0.98029891     -14.81421382       0.00013342       0.00010473      -0.00006127
H       -5.56702365      -2.11864155     -14.82845305      -0.00001463       0.00000399       0.00038634
H       -2.30739353      -1.45795523     -15.38608827      -0.00009570      -0.00016403       0.00028214
O       -3.25400290       0.13015429     -19.68393207       0.00021962       0.00031700       0.00062951
H       -3.58854956       0.40858989     -18.82292968       0.00006425      -0.00045832      -0.00023249
H       -3.07488767      -0.80221593     -19.51896256      -0.00043754       0.00045963      -0.00031117
