10
Properties=species:S:1:pos:R:3:forces:R:3 -1708.15048=T energy=-21129.91439535993 free_energy=-21129.91439535993 pbc="F F F"
S       -7.89809841      -6.23881958     -25.71962019       0.00002383       0.00001529       0.00017928
O       -7.38747862      -7.21434487     -26.64269866       0.00032592      -0.00085020      -0.00026274
O       -8.50420258      -4.99785994     -26.11846054      -0.00027984       0.00045383       0.00005895
O       -8.92239217      -7.02577708     -24.75678931       0.00015188      -0.00022396      -0.00018832
O       -6.72816981      -5.86985361     -24.66764167      -0.00037923       0.00052555       0.00026868
H       -9.46453409      -6.36778106     -24.28797701      -0.00051568       0.00029665      -0.00012321
H       -6.09419639      -6.61237790     -24.64769069       0.00038565      -0.00012029       0.00004539
O       -5.41771868      -5.19034882     -21.74793599       0.00085285      -0.00045516      -0.00025493
H       -5.46163015      -4.24096650     -21.58850601      -0.00000682       0.00070453       0.00063238
H       -5.93668476      -5.31428113     -22.55260761      -0.00055856      -0.00034636      -0.00035559
