10
Properties=species:S:1:pos:R:3:forces:R:3 -1708.40786=T energy=-21130.26870666236 free_energy=-21130.26870666236 pbc="F F F"
S       -1.32985871       0.81286124     -31.85344208      -0.00025844      -0.00050034       0.00003955
O       -1.78719223      -0.18444517     -32.78271675       0.00009078       0.00016999       0.00012708
O       -0.49510295       1.92025525     -32.25182113      -0.00001109       0.00019574       0.00008410
O       -2.61031233       1.35156453     -31.07650018       0.00017881       0.00001711      -0.00011170
O       -0.51295958       0.09417319     -30.66221603      -0.00003853       0.00001299      -0.00000418
H       -2.35916194       2.17893959     -30.56172170      -0.00000604       0.00011571      -0.00004061
H       -1.06933834      -0.61265577     -30.29389758       0.00000359       0.00006526      -0.00006481
O       -1.57864645       3.55404638     -29.92982512       0.00004257      -0.00012571      -0.00051795
H       -1.05346410       3.23823952     -29.18241939       0.00023329      -0.00011382       0.00053713
H       -0.94442063       3.60227626     -30.66006701      -0.00023494       0.00016331      -0.00004861
