10
Properties=species:S:1:pos:R:3:forces:R:3 -1708.40373=T energy=-21130.244478701537 free_energy=-21130.244478701537 pbc="F F F"
S       -8.28190354       7.65503744      -3.09342000      -0.00000301       0.00009212       0.00001285
O       -7.76779149       6.37962587      -2.67262718      -0.00002974      -0.00015974      -0.00002480
O       -8.25263692       8.08958230      -4.47160337       0.00003240       0.00000256       0.00001973
O       -9.76600517       7.78572589      -2.53283084       0.00013429      -0.00017751       0.00005388
O       -7.51227516       8.81346738      -2.27943567       0.00010392      -0.00017747       0.00036329
H      -10.29347877       8.41766953      -3.11355451      -0.00017826       0.00010081      -0.00014598
H       -7.38444379       8.50962146      -1.36426617       0.00003783       0.00027889      -0.00027544
O      -10.93339764       9.26391859      -4.45026325      -0.00017819       0.00025899       0.00019142
H      -10.06228151       9.30670222      -4.87295746      -0.00005284      -0.00018577      -0.00005761
H      -11.40627328       8.59390433      -4.96168110       0.00013368      -0.00003251      -0.00013730
