10
Properties=species:S:1:pos:R:3:forces:R:3 -1708.26724=T energy=-21130.294794819096 free_energy=-21130.294794819096 pbc="F F F"
S      -13.94185783      -2.51026421     -25.08019052       0.00013277       0.00020826       0.00007669
O      -14.25551095      -3.83534969     -25.53720501      -0.00018889      -0.00072503      -0.00025168
O      -13.77743474      -1.42089785     -26.02393876       0.00004384       0.00027823      -0.00012642
O      -14.96820693      -2.10465445     -23.95248962      -0.00013581       0.00008298       0.00010824
O      -12.60817933      -2.55793314     -24.17116745       0.00010842       0.00006825       0.00020950
H      -14.90844394      -1.11329930     -23.78607074      -0.00003475      -0.00000753       0.00003234
H      -11.84166950      -2.65670737     -24.76202696       0.00007677       0.00001246      -0.00009205
O      -14.57053916       0.55835463     -23.85355136       0.00045028       0.00036928       0.00065171
H      -13.73992234       0.66733968     -23.37155368      -0.00035396      -0.00008354       0.00014031
H      -14.29999962       0.51584173     -24.78267631      -0.00009867      -0.00020330      -0.00074853
