10
Properties=species:S:1:pos:R:3:forces:R:3 -1708.28109=T energy=-21130.244369677766 free_energy=-21130.244369677766 pbc="F F F"
S      -14.23075585      -5.72764745     -27.19801303      -0.00017626       0.00032410       0.00051202
O      -13.99514257      -7.09801979     -27.56250135       0.00010952      -0.00060415      -0.00021747
O      -14.02395586      -4.63222318     -28.11740278      -0.00028630       0.00029576      -0.00003552
O      -15.70122862      -5.64110678     -26.59219648      -0.00000614       0.00022924      -0.00007582
O      -13.32697445      -5.36002006     -25.91557960      -0.00016500      -0.00018063       0.00026676
H      -16.03856983      -4.69569337     -26.66581254       0.00012682      -0.00016356      -0.00014938
H      -13.45175082      -6.05283146     -25.24444646       0.00012891       0.00019773      -0.00028242
O      -16.38924794      -3.12258007     -27.23799592       0.00070238      -0.00000572      -0.00006035
H      -16.95965360      -3.26417170     -28.00520583      -0.00007339      -0.00016703      -0.00006190
H      -15.50310725      -3.03500378     -27.62050579      -0.00036065       0.00007424       0.00010411
