10
Properties=species:S:1:pos:R:3:forces:R:3 -1708.29198=T energy=-21129.995014573804 free_energy=-21129.995014573804 pbc="F F F"
S       -6.51820264     -11.21440402     -20.29082653       0.00018296      -0.00035983       0.00022098
O       -7.13473198     -10.80301042     -21.52995197      -0.00001657      -0.00007901      -0.00063145
O       -7.23234976     -11.32837848     -19.05417049      -0.00007810       0.00011063       0.00001717
O       -5.79235426     -12.61013008     -20.61526965       0.00026265      -0.00013192       0.00016302
O       -5.25859163     -10.26474824     -19.99866370       0.00003805       0.00004715      -0.00008833
H       -5.64393794     -13.08603096     -19.78005234      -0.00080623      -0.00033259       0.00009069
H       -4.82204954     -10.04446665     -20.83993057      -0.00033261       0.00061392      -0.00049877
O       -9.14056234     -10.24967602     -23.51679505      -0.00009103       0.00003436       0.00080576
H       -8.30831886     -10.24647496     -23.02759501       0.00014520       0.00060348      -0.00007379
H       -9.69941750     -10.81301842     -22.96995894       0.00069569      -0.00050610      -0.00000526
