10
Properties=species:S:1:pos:R:3:forces:R:3 -1708.22571=T energy=-21130.057798074027 free_energy=-21130.057798074027 pbc="F F F"
S       -2.88301544      -5.56102901     -33.08746848      -0.00025465      -0.00049964      -0.00022397
O       -2.94458362      -6.53670073     -34.15997629      -0.00015241       0.00039935       0.00032723
O       -3.97661974      -5.37398715     -32.18468127      -0.00008833      -0.00005972      -0.00026131
O       -1.51659292      -5.81106016     -32.27304940      -0.00033259      -0.00031992       0.00011870
O       -2.49348672      -4.13623269     -33.68245895       0.00078124      -0.00013560      -0.00007054
H       -1.52538698      -6.71749825     -31.91747104       0.00036738       0.00039785      -0.00020446
H       -1.82182780      -4.25467964     -34.37701937      -0.00037975       0.00039197       0.00015246
O       -3.05486955      -8.45196749     -36.14555968       0.00048605       0.00021003      -0.00037210
H       -3.50839145      -7.88003951     -35.51386608       0.00011861       0.00000370       0.00049882
H       -2.13646810      -8.22233754     -35.96465540      -0.00054539      -0.00038792       0.00003525
