10
Properties=species:S:1:pos:R:3:forces:R:3 -1708.27972=T energy=-21130.26777339658 free_energy=-21130.26777339658 pbc="F F F"
S       -1.78777934      -9.53246858     -35.50732960       0.00062250      -0.00033935       0.00002778
O       -1.46697196     -10.87025409     -35.92812722      -0.00027204      -0.00006199      -0.00004834
O       -3.09606339      -8.96193386     -35.68572280      -0.00000966       0.00009990       0.00012593
O       -1.31306098      -9.40385378     -33.99273723      -0.00032032       0.00043844      -0.00007102
O       -0.77731506      -8.49114673     -36.22609065      -0.00045661       0.00020588      -0.00002960
H       -1.40441142      -8.45035357     -33.68932748       0.00011519      -0.00034219      -0.00000156
H        0.13270242      -8.76110635     -36.01531944       0.00042143      -0.00002259       0.00002811
O       -1.47059305      -6.76032670     -33.51707883      -0.00019278      -0.00012125       0.00059439
H       -1.02319202      -6.54502836     -34.34681243       0.00049473       0.00005789      -0.00069824
H       -2.40050512      -6.57401875     -33.70500921      -0.00040241       0.00008528       0.00007260
