10
Properties=species:S:1:pos:R:3:forces:R:3 -1708.32059=T energy=-21130.267773295207 free_energy=-21130.267773295207 pbc="F F F"
S       -7.05882340      -8.51421096     -25.79516082      -0.00064754       0.00010207      -0.00014064
O       -5.92294840      -7.98614842     -25.08765673       0.00066948       0.00034034       0.00046372
O       -6.92378802      -9.28944358     -26.99919421      -0.00007558      -0.00045133      -0.00046921
O       -7.94921185      -9.28221242     -24.72127337      -0.00000620      -0.00011020       0.00011432
O       -8.05206036      -7.29830500     -26.19145536       0.00018318      -0.00023670      -0.00043877
H       -8.81638765      -9.56639641     -25.14173880       0.00008101      -0.00004639       0.00004627
H       -8.28422969      -6.82179275     -25.37631492      -0.00028632       0.00030685       0.00048839
O      -10.25032683      -9.73978568     -26.03840914       0.00000951      -0.00005947      -0.00030785
H      -10.28847378      -8.83100517     -26.36652288      -0.00000714       0.00054306       0.00016508
H       -9.94958771     -10.24606459     -26.80522891       0.00007963      -0.00038818       0.00007859
