10
Properties=species:S:1:pos:R:3:forces:R:3 -1708.28750=T energy=-21130.008541935138 free_energy=-21130.008541935138 pbc="F F F"
S      -10.13542599       7.57971358      -8.79721327      -0.00002773      -0.00012886       0.00001587
O       -8.75376064       7.23008554      -9.03057439      -0.00004375      -0.00010848       0.00018206
O      -11.09501051       7.74905920      -9.84780502       0.00020266      -0.00002275      -0.00011432
O      -10.68806814       6.49574760      -7.74766592      -0.00002880      -0.00015454      -0.00021410
O      -10.17816035       8.92164445      -7.91898974      -0.00001235      -0.00024793       0.00013625
H      -11.65632490       6.45082717      -7.82895451      -0.00021190       0.00040036       0.00036365
H       -9.41438278       8.92800150      -7.31642652      -0.00003957       0.00005044      -0.00031391
O       -6.14857072       6.62559049      -9.78368680      -0.00013104       0.00087728      -0.00028754
H       -6.17496607       7.52263762      -9.43266635       0.00002539      -0.00089431       0.00011646
H       -7.07591041       6.37121051      -9.70655999       0.00026697       0.00022884       0.00011561
