10
Properties=species:S:1:pos:R:3:forces:R:3 -1708.29303=T energy=-21130.26777430891 free_energy=-21130.26777430891 pbc="F F F"
S       -2.13168542      -9.41113600     -36.88344396       0.00010673      -0.00001745       0.00023878
O       -2.79770124     -10.42697362     -37.65426391       0.00007987       0.00006676       0.00012302
O       -2.53948624      -8.03205512     -36.91126547      -0.00011063       0.00011730      -0.00003031
O       -2.05339859      -9.95081913     -35.38728335      -0.00008947      -0.00005239      -0.00010857
O       -0.56069276      -9.38926857     -37.27523868      -0.00000767       0.00007471      -0.00015112
H       -1.48935844      -9.33094766     -34.83306216      -0.00004724      -0.00001453      -0.00004154
H       -0.20393530     -10.28325484     -37.13755803       0.00009790      -0.00014387       0.00004314
O       -0.34799617      -8.24090700     -34.20094783       0.00029988      -0.00048135      -0.00010946
H        0.28000475      -8.29800752     -34.93400004      -0.00006204      -0.00001661       0.00009219
H       -0.78319352      -7.38883674     -34.34000682      -0.00026737       0.00046745      -0.00005592
