10
Properties=species:S:1:pos:R:3:forces:R:3 -1708.38750=T energy=-21130.24778965868 free_energy=-21130.24778965868 pbc="F F F"
S       -1.33056390      -4.35459965     -35.12876087       0.00020360       0.00009250       0.00046820
O       -0.21498655      -4.87205251     -34.37572266      -0.00033593       0.00006813      -0.00021613
O       -1.44452423      -4.58880292     -36.54617402       0.00000596      -0.00003275      -0.00010288
O       -2.70035361      -4.75917821     -34.42178455       0.00009269      -0.00033532      -0.00024545
O       -1.39820830      -2.76725570     -34.90919437       0.00004777       0.00002667       0.00011234
H       -3.04765633      -5.59607012     -34.85528248       0.00004287       0.00028165       0.00014903
H       -1.16222538      -2.57638100     -33.98415398      -0.00004681      -0.00008811      -0.00018265
O       -3.60730228      -6.71941017     -36.05910602       0.00035000      -0.00011802       0.00006241
H       -2.86504455      -6.54487543     -36.65550532      -0.00006061      -0.00002727       0.00009111
H       -4.34903452      -6.25764028     -36.47227875      -0.00029951       0.00013255      -0.00013634
