10
Properties=species:S:1:pos:R:3:forces:R:3 -1708.39710=T energy=-21130.268705192488 free_energy=-21130.268705192488 pbc="F F F"
S       -1.52681475      -8.40250631     -39.77866959      -0.00000143      -0.00011477       0.00031956
O       -1.31742216      -9.19567924     -38.59170022       0.00014186       0.00015020      -0.00017047
O       -0.52322257      -8.25558199     -40.79777159       0.00020951       0.00011349      -0.00016594
O       -2.87037954      -9.00367013     -40.43918121       0.00035441       0.00005357      -0.00080076
O       -2.00248544      -6.93825549     -39.37488855       0.00004236      -0.00016923      -0.00011381
H       -3.10811236      -8.45169023     -41.20314685      -0.00029777      -0.00016035       0.00061557
H       -2.55744733      -6.99173400     -38.53716172      -0.00009855      -0.00012371       0.00002455
O       -3.34066228      -7.48252238     -37.10706988       0.00037503      -0.00000325       0.00001663
H       -4.18494962      -7.86106388     -37.38647583      -0.00019881       0.00029966       0.00032575
H       -2.76547984      -8.25224451     -36.98657163      -0.00052652      -0.00004581      -0.00005081
