10
Properties=species:S:1:pos:R:3:forces:R:3 -1708.40582=T energy=-21130.244480779627 free_energy=-21130.244480779627 pbc="F F F"
S       -1.76073186      -8.77326588     -35.84540289       0.00012891      -0.00005327      -0.00007192
O       -2.72652501      -9.68496291     -36.39685419      -0.00007343      -0.00004828       0.00003099
O       -2.11789237      -7.73786920     -34.90228879      -0.00006863       0.00006032       0.00012779
O       -0.56637249      -9.63921992     -35.24745423      -0.00000909       0.00001034       0.00010149
O       -1.03751511      -7.99538217     -37.05730179       0.00009142      -0.00032681      -0.00049922
H       -0.10385101      -9.12095907     -34.51786139      -0.00000481      -0.00004272      -0.00005857
H       -0.89425860      -8.62724486     -37.78285721      -0.00005078       0.00038578       0.00033980
O        0.21978086      -8.11059673     -33.18109082      -0.00004217       0.00016545      -0.00022695
H       -0.44334416      -7.46735101     -33.47409372       0.00010878      -0.00003691       0.00003818
H       -0.20140475      -8.55226772     -32.43168884      -0.00008013      -0.00011399       0.00021866
