10
Properties=species:S:1:pos:R:3:forces:R:3 -1708.31629=T energy=-21130.267765337638 free_energy=-21130.267765337638 pbc="F F F"
S       -7.55586728      -9.70246350     -20.08042955       0.00007645       0.00002258       0.00014391
O       -6.38296928      -9.97940063     -20.86560078       0.00005174      -0.00018311       0.00033391
O       -8.53135286      -8.72071954     -20.47317876       0.00025737      -0.00027168       0.00021723
O       -8.28579289     -11.13675016     -19.90094547       0.00025420      -0.00007552       0.00015637
O       -7.16638562      -9.38072026     -18.57026512       0.00014223       0.00021301      -0.00001863
H       -9.00953408     -11.02773827     -19.26078200      -0.00073612      -0.00008860      -0.00066915
H       -6.57960326     -10.11192336     -18.20884474       0.00002320       0.00011355       0.00026362
O       -5.78996874     -11.56223283     -17.80568555       0.00038767      -0.00007319      -0.00042081
H       -5.06416603     -11.58446544     -18.44402284      -0.00068936       0.00015323      -0.00056758
H       -6.44822334     -12.15823046     -18.18847130       0.00023280       0.00018958       0.00056131
