10
Properties=species:S:1:pos:R:3:forces:R:3 -1708.40607=T energy=-21130.24447728235 free_energy=-21130.24447728235 pbc="F F F"
S       -1.24314338       1.80880446     -14.79560818       0.00008690       0.00019202      -0.00004648
O        0.14697126       1.89602696     -15.15348030       0.00022221       0.00008975      -0.00002089
O       -2.30135134       1.80393978     -15.78015571       0.00023472       0.00007285       0.00006312
O       -1.41581180       0.55293661     -13.83293972       0.00006422       0.00043705       0.00032872
O       -1.59885029       3.03620091     -13.81385532       0.00017532       0.00047548      -0.00033804
H       -2.36016811       0.20710905     -13.89272423       0.00035063      -0.00025904      -0.00017921
H       -0.84618005       3.17423859     -13.21335298      -0.00002676      -0.00010236       0.00029142
O       -3.89377420      -0.27007883     -14.46746427      -0.00000718      -0.00020013      -0.00023100
H       -3.71235479      -1.01086930     -15.06109846      -0.00095068      -0.00016688      -0.00023007
H       -3.93888459       0.49608037     -15.05937382      -0.00014928      -0.00053871       0.00036238
