10
Properties=species:S:1:pos:R:3:forces:R:3 -1708.40371=T energy=-21130.2444795125 free_energy=-21130.2444795125 pbc="F F F"
S        0.67227020       2.54124933     -31.13269964       0.00028397      -0.00009095       0.00021642
O        1.96868729       1.93829763     -31.28705471      -0.00039959       0.00019825       0.00000685
O       -0.01484987       3.19856871     -32.22122751       0.00014782      -0.00004810       0.00004297
O       -0.29164257       1.45329123     -30.48375408      -0.00035965       0.00019059      -0.00026631
O        0.75721438       3.65192191     -29.96820064      -0.00036809       0.00011411      -0.00058559
H       -1.24677444       1.65476879     -30.73271097       0.00029105      -0.00006294       0.00017495
H        1.32826478       3.30799914     -29.25983633       0.00032531      -0.00025713       0.00035392
O       -2.65550004       2.11120039     -31.58112879       0.00006223       0.00012964       0.00032690
H       -2.19376920       2.85336222     -31.99986505       0.00009198       0.00030719       0.00005174
H       -2.73729628       1.45966861     -32.29026765      -0.00007489      -0.00048068      -0.00032178
