10
Properties=species:S:1:pos:R:3:forces:R:3 -1708.24939=T energy=-21130.268706966468 free_energy=-21130.268706966468 pbc="F F F"
S       -0.43448189       2.62656996     -17.02704247       0.00007901      -0.00009998       0.00008875
O       -1.71179827       2.02690630     -17.32823025      -0.00016677       0.00009131       0.00005656
O       -0.31012020       3.96033403     -16.50460651      -0.00001782      -0.00025702      -0.00008160
O        0.27345070       1.59063139     -16.01287494       0.00050437       0.00047314      -0.00006920
O        0.52236499       2.52901722     -18.29523858       0.00009403      -0.00006900       0.00009471
H        1.17809326       1.90195041     -15.84098688      -0.00052948      -0.00017869      -0.00016245
H        0.31791195       1.68135495     -18.79750805       0.00002806      -0.00019109       0.00008871
O       -0.37171806       0.24151520     -19.39009288      -0.00001815      -0.00009686       0.00036076
H       -1.23434103       0.41981574     -18.98772714      -0.00030472       0.00018851      -0.00013626
H       -0.00226485      -0.46936251     -18.84940237       0.00033143       0.00013939      -0.00024018
