10
Properties=species:S:1:pos:R:3:forces:R:3 -1708.21495=T energy=-21129.994947922823 free_energy=-21129.994947922823 pbc="F F F"
S      -11.92167551      -6.84440452     -27.47825940      -0.00000602       0.00011643       0.00012949
O      -12.40456494      -6.85300266     -28.83899771       0.00007579      -0.00007255       0.00007188
O      -12.78350708      -6.89590829     -26.33499520       0.00009973       0.00002717      -0.00016522
O      -10.85525765      -8.04251533     -27.39225692      -0.00008553       0.00016938      -0.00014865
O      -10.97593355      -5.56473777     -27.27398741       0.00013532      -0.00002003      -0.00026376
H      -10.74830170      -8.29817887     -26.45987540       0.00002400      -0.00008829       0.00011389
H      -10.47979127      -5.39939843     -28.09457153      -0.00020110      -0.00012574       0.00028028
O      -14.15341662      -7.22797073     -31.09249769      -0.00005229       0.00000968       0.00009317
H      -14.74439433      -7.62628063     -30.44379180      -0.00001946      -0.00006330      -0.00010575
H      -13.39435186      -6.97465698     -30.55248061       0.00002947       0.00004715      -0.00000535
