10
Properties=species:S:1:pos:R:3:forces:R:3 -1708.21092=T energy=-21130.294794819096 free_energy=-21130.294794819096 pbc="F F F"
S       -7.20006838      -6.41317945     -23.73861681       0.00021840      -0.00049227       0.00004061
O       -6.82083871      -6.79087371     -25.07153732      -0.00011963       0.00024259       0.00045395
O       -7.59665968      -5.05021268     -23.43953412      -0.00014344       0.00022531      -0.00017858
O       -8.38845155      -7.37828655     -23.22514287      -0.00029676       0.00037217      -0.00045413
O       -6.07701632      -6.88671266     -22.73652802      -0.00001720      -0.00011110      -0.00014440
H       -9.21363669      -7.10068989     -23.65925048       0.00040133      -0.00022733       0.00035330
H       -6.21183832      -6.43710524     -21.84561691      -0.00006320       0.00002006      -0.00005258
O       -6.71984362      -5.44503643     -20.55289817      -0.00004476       0.00012392       0.00000137
H       -7.10709457      -4.78534661     -21.14715986       0.00008747      -0.00015600       0.00000217
H       -7.48487959      -5.89762082     -20.17342541      -0.00002212       0.00000268      -0.00002164
