10
Properties=species:S:1:pos:R:3:forces:R:3 -1708.39417=T energy=-21130.247789050456 free_energy=-21130.247789050456 pbc="F F F"
S      -10.05272233     -11.37988453     -28.57627162      -0.00007601       0.00014753      -0.00003059
O       -9.85261582     -12.77835699     -28.86532687       0.00007176      -0.00002265      -0.00001769
O      -10.46168615     -10.45811671     -29.60583292       0.00006524      -0.00001788       0.00000185
O      -11.01567776     -11.21564886     -27.31708550      -0.00013430      -0.00001110       0.00003588
O       -8.70380824     -10.79652970     -27.93395155       0.00020751      -0.00060372       0.00040284
H      -11.95402303     -11.08046951     -27.64898342       0.00014804       0.00000072       0.00001682
H       -8.32282519     -11.47788664     -27.35218746      -0.00025120       0.00051601      -0.00042428
O      -13.32686285     -10.42384829     -28.49061740       0.00000125       0.00062224       0.00011939
H      -13.34997178      -9.50185779     -28.20156812       0.00005362      -0.00065247      -0.00031178
H      -12.86594646     -10.38814404     -29.34114144      -0.00008584       0.00002123       0.00020759
