10
Properties=species:S:1:pos:R:3:forces:R:3 -1708.40542=T energy=-21130.244479005647 free_energy=-21130.244479005647 pbc="F F F"
S       -1.41046452      -6.63575128     -40.16685953       0.00006172      -0.00012089       0.00039972
O       -1.57594207      -6.50879217     -41.58973092      -0.00014772      -0.00003186      -0.00064397
O       -2.52806109      -6.63536108     -39.25031454      -0.00020254      -0.00006670       0.00017524
O       -0.51158848      -7.92176051     -39.89846418       0.00010318       0.00004727      -0.00004597
O       -0.45481583      -5.44455503     -39.65242596      -0.00004382       0.00016333       0.00019633
H       -0.70646048      -8.28611368     -38.97970180      -0.00001111       0.00001328       0.00004977
H        0.24606417      -5.30905107     -40.31316747       0.00024933      -0.00003174      -0.00008692
O       -1.49265764      -8.77862988     -37.54732439      -0.00000626      -0.00001682      -0.00002344
H       -2.06543464      -7.99693467     -37.56244537       0.00002640      -0.00009935       0.00000703
H       -2.07603420      -9.49849604     -37.82218936      -0.00002922       0.00014341      -0.00002803
