10
Properties=species:S:1:pos:R:3:forces:R:3 -1708.29577=T energy=-21130.26770882369 free_energy=-21130.26770882369 pbc="F F F"
S        1.11687248       2.05993601     -15.56297348       0.00031011      -0.00010197       0.00017434
O        1.37090206       0.83059959     -14.86045003       0.00057721       0.00036335      -0.00013667
O        2.04450596       3.15950565     -15.55184902      -0.00028846       0.00021958      -0.00034425
O        0.83648111       1.61456497     -17.09412074      -0.00008801       0.00019771      -0.00019976
O       -0.30492390       2.65772497     -15.16619947      -0.00000173      -0.00021465       0.00046897
H        0.52453027       2.39545592     -17.58218496      -0.00018515      -0.00067274       0.00030474
H       -1.00979516       1.94921509     -15.26937438       0.00023169      -0.00029872       0.00025566
O       -1.99086353       0.63190575     -15.70997174      -0.00036794      -0.00011218      -0.00063390
H       -1.61345651      -0.07726058     -15.17185518      -0.00088214       0.00027775       0.00008240
H       -1.60294504       0.48512681     -16.58343634       0.00069439       0.00034164       0.00002843
