10
Properties=species:S:1:pos:R:3:forces:R:3 -1708.30157=T energy=-21130.00853922348 free_energy=-21130.00853922348 pbc="F F F"
S        0.08749908      -4.23748151     -32.92299742      -0.00006219      -0.00009475      -0.00005188
O       -0.81252107      -5.15482524     -33.58186345       0.00003791       0.00003660       0.00004590
O       -0.01593181      -2.81274040     -33.03531649      -0.00006315       0.00009894       0.00002065
O        0.06695140      -4.64730574     -31.36947133       0.00003006      -0.00005674       0.00005612
O        1.59108884      -4.61972316     -33.33180015       0.00002587       0.00004239      -0.00004503
H        0.35009676      -3.88032709     -30.84246943       0.00000501      -0.00004438       0.00001398
H        1.64852403      -5.58298805     -33.45541208       0.00002281       0.00004082      -0.00006197
O       -2.64148399      -6.67000096     -35.02366600      -0.00060840       0.00007471      -0.00039382
H       -2.44544484      -6.06853501     -34.29538737       0.00005752       0.00037251       0.00039896
H       -1.77065935      -6.75990078     -35.42633198       0.00055456      -0.00047021       0.00001714
