10
Properties=species:S:1:pos:R:3:forces:R:3 -1708.40528=T energy=-21130.268706966468 free_energy=-21130.268706966468 pbc="F F F"
S       -5.61952824       4.27582344      -9.24012062       0.00002625      -0.00012741       0.00006232
O       -4.80838083       3.31278028      -9.94470552      -0.00003600       0.00003994       0.00002879
O       -6.67456684       5.01404019      -9.87984469      -0.00010860       0.00012267      -0.00018072
O       -6.22612904       3.45965264      -7.98762381       0.00010061      -0.00014788      -0.00001976
O       -4.68668871       5.33457027      -8.50375755       0.00001302       0.00000647       0.00007003
H       -6.71583582       4.08328665      -7.42540978      -0.00001776       0.00009698       0.00004387
H       -3.83855203       4.87881099      -8.21121929       0.00001729       0.00001546      -0.00000465
O       -2.54782236       3.79441200      -7.97172960       0.00003743       0.00005490       0.00001988
H       -2.80158927       3.24565800      -7.21763748      -0.00000541      -0.00001052       0.00003996
H       -2.77904206       3.25663009      -8.74318307      -0.00002701      -0.00005072      -0.00005972
