10
Properties=species:S:1:pos:R:3:forces:R:3 -1708.29428=T energy=-21130.009165058447 free_energy=-21130.009165058447 pbc="F F F"
S       -6.04838338       0.93142515     -23.55311999       0.00003328       0.00011005       0.00002550
O       -6.03443458      -0.40332061     -23.03218065       0.00003444      -0.00014091       0.00006998
O       -6.52477896       1.26547645     -24.87517498      -0.00006437       0.00001901      -0.00012159
O       -6.83761839       1.83024603     -22.48334083       0.00001240       0.00008914      -0.00007021
O       -4.56948187       1.55176732     -23.45786996       0.00006175      -0.00011595       0.00011410
H       -7.04102538       2.69260406     -22.88531791      -0.00000942      -0.00003634       0.00006439
H       -4.08096701       1.08575736     -22.75759975      -0.00009496       0.00007247      -0.00009842
O       -7.48082345       1.73455030     -27.44854558       0.00016681       0.00056487      -0.00003845
H       -6.98028302       2.50699933     -27.16326032      -0.00021959      -0.00027551      -0.00018035
H       -7.38607193       1.15931722     -26.67987247       0.00007964      -0.00028679       0.00023495
