10
Properties=species:S:1:pos:R:3:forces:R:3 -1708.39536=T energy=-21130.24448017141 free_energy=-21130.24448017141 pbc="F F F"
S       -7.15406483       1.31251076     -24.34501105      -0.00012845      -0.00003176      -0.00014185
O       -5.77944595       1.34156630     -23.92355914       0.00026679       0.00001274       0.00005698
O       -7.66773556       2.17551790     -25.38444938      -0.00001264       0.00001645      -0.00003123
O       -7.52201111      -0.19800574     -24.68686381       0.00002106      -0.00002569       0.00002293
O       -8.09014528       1.60500419     -23.06632355      -0.00003061      -0.00008532       0.00032961
H       -8.27934782      -0.22070275     -25.35075210      -0.00003394       0.00000182      -0.00004309
H       -7.70678149       1.14938427     -22.29714623      -0.00008558       0.00011347      -0.00019706
O       -9.31904140       0.12294260     -26.65976719      -0.00001909       0.00003016       0.00000987
H       -9.22651167       1.07696759     -26.51617448       0.00000086       0.00001219       0.00002469
H       -8.78561669      -0.04535509     -27.44793841       0.00002173      -0.00004409      -0.00003091
