10
Properties=species:S:1:pos:R:3:forces:R:3 -1708.26920=T energy=-21130.267774055486 free_energy=-21130.267774055486 pbc="F F F"
S       -6.27969550     -11.26184117     -27.43503235       0.00021592       0.00010315      -0.00010896
O       -5.26665540     -11.16980868     -28.45235909      -0.00027156      -0.00002402       0.00025606
O       -7.19625660     -10.18756374     -27.16154368       0.00012350      -0.00023103      -0.00001299
O       -7.06174979     -12.62516882     -27.69116161      -0.00007175       0.00017250       0.00017078
O       -5.57775496     -11.58346550     -26.01170245       0.00027850      -0.00050441      -0.00024533
H       -7.70095160     -12.79577800     -26.93494402       0.00009041      -0.00009799      -0.00011545
H       -5.04899646     -12.39313861     -26.11328812      -0.00040473       0.00053858       0.00008188
O       -8.52679681     -12.92794353     -25.45477687       0.00006651       0.00048931       0.00025226
H       -9.05053220     -12.11533449     -25.44175145       0.00056334      -0.00049927       0.00007318
H       -7.77230190     -12.72158899     -24.88627861      -0.00059009       0.00005300      -0.00035152
