10
Properties=species:S:1:pos:R:3:forces:R:3 -1708.23488=T energy=-21130.008564312633 free_energy=-21130.008564312633 pbc="F F F"
S      -10.46961973      -8.40745825     -29.68867080       0.00005876      -0.00007376       0.00032411
O       -9.65596103      -9.30148619     -30.45797779       0.00005448       0.00000918       0.00007361
O      -11.20168901      -7.30345294     -30.26400935      -0.00006872       0.00016630      -0.00003154
O      -11.49640151      -9.32180511     -28.86181204       0.00077272      -0.00017583      -0.00052479
O       -9.58536737      -7.77402335     -28.50604517      -0.00016725      -0.00026789      -0.00016187
H      -12.18590760      -8.75285461     -28.47803771      -0.00057770       0.00043998       0.00036235
H       -8.83543799      -8.36717577     -28.32732713      -0.00002010      -0.00002332      -0.00003002
O      -12.55621892      -5.31912533     -31.66068237      -0.00054751       0.00015583      -0.00022370
H      -11.72878332      -5.71988313     -31.36858138       0.00086956      -0.00024563       0.00015463
H      -13.19929078      -5.92316027     -31.27316797      -0.00037391       0.00001516       0.00005723
