10
Properties=species:S:1:pos:R:3:forces:R:3 -1708.31603=T energy=-21130.267734419693 free_energy=-21130.267734419693 pbc="F F F"
S       -2.60069149      -6.54399691     -31.43079682       0.00016243      -0.00020728       0.00015800
O       -1.70863191      -7.12198361     -32.40033043      -0.00009596      -0.00000715       0.00003922
O       -3.64488836      -5.62402138     -31.79620793      -0.00015068       0.00011098      -0.00009704
O       -3.18328938      -7.75058017     -30.56962249       0.00000869       0.00007135      -0.00010192
O       -1.73443244      -5.76545350     -30.30660739      -0.00008281       0.00016708      -0.00003102
H       -3.73757165      -7.38749561     -29.81423716       0.00004395      -0.00000898      -0.00002937
H       -1.10109389      -6.39635712     -29.92474374       0.00012439      -0.00012042       0.00005936
O       -4.46337068      -6.47982469     -28.57416062       0.00022491      -0.00006573       0.00018350
H       -3.69762300      -5.93062086     -28.35750586      -0.00011523      -0.00007507      -0.00004238
H       -5.02082307      -5.89228984     -29.10257048      -0.00011978       0.00013511      -0.00013822
