10
Properties=species:S:1:pos:R:3:forces:R:3 -1708.40065=T energy=-21130.244480374145 free_energy=-21130.244480374145 pbc="F F F"
S      -10.25240660      -9.61777371     -28.86424741      -0.00041529       0.00027584       0.00022471
O       -9.29152611     -10.64243551     -29.17216863       0.00043893      -0.00057638      -0.00020626
O      -10.81380393      -8.74873414     -29.87353142      -0.00030589       0.00021255      -0.00033617
O      -11.43285780     -10.29563622     -28.03907775       0.00002271      -0.00022760      -0.00002301
O       -9.60930542      -8.62114366     -27.77338657       0.00061275      -0.00012352       0.00056677
H      -12.27990702      -9.76386873     -28.15969807      -0.00011238       0.00007030      -0.00001182
H       -9.09895245      -9.15258140     -27.13831741      -0.00025451       0.00035469      -0.00017717
O      -13.54365007      -8.82635461     -28.82045079      -0.00008949       0.00021364       0.00058712
H      -12.91582703      -8.29403975     -29.33212345       0.00019706       0.00012402      -0.00026593
H      -13.95462155      -9.39889403     -29.48178593      -0.00009406      -0.00032364      -0.00035837
