10
Properties=species:S:1:pos:R:3:forces:R:3 -1708.39516=T energy=-21130.244479664554 free_energy=-21130.244479664554 pbc="F F F"
S       -3.75677344      -9.69252576     -34.80347152       0.00002573       0.00026432      -0.00051086
O       -3.05638860     -10.95454040     -34.72679418      -0.00012904       0.00019717      -0.00001651
O       -3.41836768      -8.67627597     -35.76305471      -0.00009282      -0.00035620       0.00037462
O       -5.30532685     -10.09179591     -35.00204098       0.00044712      -0.00053337       0.00020488
O       -3.77159566      -9.01174658     -33.36464780      -0.00005668       0.00007636      -0.00016215
H       -5.80709232      -9.28092616     -35.19409306      -0.00025882       0.00048818      -0.00011218
H       -3.58760689      -9.70651156     -32.65875231       0.00009518      -0.00009341       0.00014416
O       -2.96366616     -11.04473047     -31.80307629       0.00015950       0.00005740       0.00016648
H       -2.03034276     -10.83485836     -31.66542210      -0.00013459      -0.00000420       0.00003326
H       -2.96332599     -11.58966364     -32.60456845      -0.00005576      -0.00009649      -0.00012161
