10
Properties=species:S:1:pos:R:3:forces:R:3 -1708.39667=T energy=-21130.244458275418 free_energy=-21130.244458275418 pbc="F F F"
S       -2.80209464      -6.28765643     -36.15003383       0.00034385       0.00000437       0.00021170
O       -1.38500549      -6.35994091     -36.38440459       0.00031638       0.00021872      -0.00003026
O       -3.77572551      -6.51687493     -37.19353635       0.00012887      -0.00049663       0.00028417
O       -3.13526708      -7.22408131     -34.90678947       0.00025968      -0.00017962      -0.00037897
O       -3.15160664      -4.82440965     -35.57254722      -0.00019859       0.00009128      -0.00019259
H       -4.08761828      -7.54722455     -34.96939823       0.00033757      -0.00043248      -0.00041108
H       -2.43418941      -4.55398856     -34.97386176      -0.00055795      -0.00004347       0.00011239
O       -5.58693953      -8.11624789     -35.54877222      -0.00059132      -0.00007848      -0.00010625
H       -5.53628746      -7.53650120     -36.32383651      -0.00001975       0.00017642       0.00020906
H       -5.39649802      -8.99474604     -35.90387313      -0.00001862       0.00073993       0.00030172
