10
Properties=species:S:1:pos:R:3:forces:R:3 -1708.30883=T energy=-21130.267774714393 free_energy=-21130.267774714393 pbc="F F F"
S        1.19583990      -5.65057823     -37.99797510       0.00012327      -0.00037302      -0.00003734
O        2.15052005      -6.52782162     -38.62085386      -0.00013638       0.00013721       0.00002396
O        1.43199746      -4.23981472     -37.84426849       0.00002837       0.00021470      -0.00002471
O       -0.17763349      -5.87376485     -38.82609132       0.00005507       0.00006312      -0.00002848
O        0.76782993      -6.20073564     -36.56619371      -0.00009190      -0.00002195      -0.00005627
H       -0.89009962      -5.40533411     -38.35874134       0.00001604      -0.00003172       0.00002341
H        0.47424716      -7.15836094     -36.64560261      -0.00003263      -0.00005348       0.00003488
O       -0.14739830      -8.67363790     -37.10159440      -0.00013354      -0.00003159       0.00041679
H        0.61810943      -9.08850987     -37.52188194       0.00029460      -0.00007391      -0.00018664
H       -0.67441068      -8.35883904     -37.84869451      -0.00012310       0.00017064      -0.00016581
