10
Properties=species:S:1:pos:R:3:forces:R:3 -1708.40464=T energy=-21130.24448067826 free_energy=-21130.24448067826 pbc="F F F"
S       -1.66223939       1.74446857      -9.92356270       0.00021796      -0.00015345       0.00019254
O       -0.70539684       0.70315715      -9.66242712      -0.00019991       0.00028670      -0.00004309
O       -1.47080723       2.73568014     -10.95794202      -0.00000513      -0.00012839       0.00015533
O       -3.08497102       1.05598801     -10.11262182      -0.00010118       0.00031164      -0.00010434
O       -1.87781824       2.59528273      -8.57207617      -0.00004490       0.00003168      -0.00029954
H       -3.67213693       1.64207779     -10.68408914       0.00012049      -0.00012849       0.00007229
H       -1.87845680       1.97825505      -7.82010765       0.00002004      -0.00015902      -0.00004413
O       -4.24511683       2.70560339     -11.88960586      -0.00003696       0.00000110       0.00015809
H       -3.44543395       3.24948845     -11.82607048       0.00010155       0.00009938       0.00010240
H       -4.13083230       2.22187412     -12.71847195      -0.00007208      -0.00016111      -0.00018974
