10
Properties=species:S:1:pos:R:3:forces:R:3 -1708.23269=T energy=-21130.29688086807 free_energy=-21130.29688086807 pbc="F F F"
S       -5.96794121       2.72176741     -26.57744911       0.00030312       0.00049877       0.00040132
O       -6.31879102       3.42585158     -27.77763220      -0.00008172      -0.00018042       0.00008941
O       -4.97858842       3.25143105     -25.66394388      -0.00040978      -0.00038332      -0.00037062
O       -7.33905668       2.46448638     -25.78667395       0.00009388       0.00015621      -0.00006773
O       -5.60752501       1.19990634     -26.88966652       0.00005059      -0.00011978      -0.00004780
H       -7.13138991       2.00265797     -24.95525482       0.00002600      -0.00001027      -0.00003942
H       -4.64826534       1.14779256     -27.17470134       0.00008028       0.00003282      -0.00004558
O       -2.93493370       1.36335196     -27.43372567       0.00003517      -0.00010039       0.00017859
H       -2.89996264       1.99327871     -28.16607782      -0.00010910       0.00012952      -0.00027025
H       -2.81029091       1.91613644     -26.64974494       0.00001155      -0.00002319       0.00017193
