10
Properties=species:S:1:pos:R:3:forces:R:3 -1708.39098=T energy=-21130.24778955731 free_energy=-21130.24778955731 pbc="F F F"
S        1.12681388      -2.87670437     -34.86984023       0.00003745      -0.00010340      -0.00024364
O        2.17080773      -3.12833299     -33.90751434       0.00029647       0.00001246       0.00022578
O        1.34403472      -3.09456562     -36.27776216      -0.00008810       0.00003326       0.00014436
O       -0.21249499      -3.61891232     -34.42804387      -0.00009108       0.00004436      -0.00007623
O        0.63603402      -1.35915098     -34.70076535      -0.00012175       0.00005466      -0.00045259
H       -0.25773898      -4.50346210     -34.90178489      -0.00003913      -0.00003206      -0.00002785
H        0.63875233      -1.14099241     -33.75197701       0.00002598       0.00000613       0.00041149
O       -0.28925618      -5.69738253     -36.16588048      -0.00013236      -0.00013089       0.00007701
H        0.48773073      -5.33294004     -36.61373152      -0.00004783       0.00007091      -0.00007203
H       -1.02858750      -5.41857419     -36.72246360       0.00016043       0.00004460       0.00001399
