10
Properties=species:S:1:pos:R:3:forces:R:3 -1708.40231=T energy=-21130.268705344544 free_energy=-21130.268705344544 pbc="F F F"
S       -3.69110682       3.32700917       1.39271993       0.00028170      -0.00039848      -0.00016752
O       -4.47612640       2.20620330       1.83415885       0.00039649       0.00081635      -0.00003964
O       -2.30519890       3.20175322       1.01134814      -0.00030768       0.00008202       0.00017047
O       -4.50994059       4.04419858       0.23145027      -0.00033617      -0.00016178       0.00001895
O       -3.69805448       4.46426184       2.53703552       0.00036655       0.00007490      -0.00024550
H       -3.91241920       4.70911133      -0.23059580       0.00014016       0.00006231      -0.00007005
H       -4.62174613       4.65520943       2.77184217      -0.00053137      -0.00019611       0.00017716
O       -2.59547784       5.63245911      -0.78936190       0.00016475       0.00045025       0.00040651
H       -2.50956387       6.37012687      -0.17075526       0.00004318      -0.00073361      -0.00002155
H       -1.93891215       4.98991867      -0.48295149      -0.00021754       0.00000431      -0.00022889
