10
Properties=species:S:1:pos:R:3:forces:R:3 -1708.26847=T energy=-21130.26777410617 free_energy=-21130.26777410617 pbc="F F F"
S       -6.64084812     -11.52584868     -28.39756748       0.00011945       0.00076065      -0.00028396
O       -5.46438035     -12.35384626     -28.39683005      -0.00002813       0.00001991       0.00000241
O       -6.92500935     -10.59252163     -29.45450347       0.00003564      -0.00041580       0.00011742
O       -7.88032653     -12.49308486     -28.14464417       0.00000578      -0.00060979      -0.00011647
O       -6.67091992     -10.64160301     -27.04139482       0.00018854       0.00002868       0.00014131
H       -8.71424649     -11.94774273     -28.01541129      -0.00033690       0.00029577       0.00004410
H       -6.61975243     -11.24990485     -26.28456063      -0.00003130      -0.00001709       0.00010992
O       -9.90130776     -10.79020870     -27.63933425      -0.00031361      -0.00015707      -0.00031785
H       -9.36184445     -10.27032082     -27.02803196       0.00031298       0.00016023       0.00026985
H       -9.91970123     -10.25097922     -28.44162615       0.00004758      -0.00006554       0.00003327
