10
Properties=species:S:1:pos:R:3:forces:R:3 -1708.27851=T energy=-21130.267735027915 free_energy=-21130.267735027915 pbc="F F F"
S       -3.98391865     -10.13920558     -38.25716499      -0.00016415      -0.00061592       0.00019492
O       -4.46674581     -11.44273342     -37.88628580       0.00029111       0.00050235      -0.00037801
O       -4.72830117      -9.25721610     -39.11636650       0.00005265      -0.00010324      -0.00009912
O       -3.57395812      -9.40242609     -36.90589344       0.00007787       0.00009502       0.00033671
O       -2.53678319     -10.28860439     -38.96697935      -0.00050360       0.00019633      -0.00027635
H       -3.13858400      -8.52283766     -37.12138689       0.00007377       0.00003775      -0.00015210
H       -1.94858747     -10.76120050     -38.35407911       0.00015520      -0.00019974       0.00031578
O       -2.31784626      -7.19836613     -37.79999762      -0.00004642       0.00023664       0.00008301
H       -1.73452017      -7.70009824     -38.38559894      -0.00015645      -0.00000516      -0.00004701
H       -3.00348918      -6.86515439     -38.39501414       0.00022008      -0.00014363       0.00002220
