10
Properties=species:S:1:pos:R:3:forces:R:3 -1708.33583=T energy=-21130.26777370069 free_energy=-21130.26777370069 pbc="F F F"
S       -8.31399218      -5.77477981     -30.19054565       0.00013582      -0.00002816       0.00015471
O       -7.67833628      -6.81312729     -30.95652435       0.00006044      -0.00002217      -0.00010955
O       -8.69975109      -4.51605746     -30.77060355      -0.00005406      -0.00003004      -0.00003173
O       -9.61503554      -6.47923565     -29.53251013      -0.00020476       0.00024036       0.00018391
O       -7.47096716      -5.43581808     -28.88276248      -0.00002340       0.00020897      -0.00010591
H      -10.00427497      -5.85640850     -28.89530162       0.00010335      -0.00023115      -0.00011121
H       -7.28047686      -6.28128925     -28.37441017       0.00002890      -0.00015340       0.00003767
O       -7.28306150      -7.81196215     -27.63447515       0.00001978       0.00057596       0.00067267
H       -6.85533919      -8.36154419     -28.30511387       0.00048979      -0.00053129      -0.00061716
H       -8.22462419      -7.99469367     -27.75718586      -0.00055581      -0.00002923      -0.00007323
