10
Properties=species:S:1:pos:R:3:forces:R:3 -1708.40966=T energy=-21130.268706510302 free_energy=-21130.268706510302 pbc="F F F"
S       -1.90354250       6.84882052      -5.60636808      -0.00021869      -0.00006774      -0.00055443
O       -0.87844651       7.11583322      -6.58602775       0.00011539      -0.00004818       0.00006628
O       -1.93628029       7.49883288      -4.32429901       0.00033873       0.00018376       0.00085127
O       -3.29073644       7.13064325      -6.38037232      -0.00003985      -0.00001894      -0.00065184
O       -2.00412327       5.28276202      -5.34042712       0.00003979       0.00030714       0.00006783
H       -4.02400137       6.88296251      -5.79234308      -0.00031590      -0.00008042       0.00031177
H       -1.79083459       4.78993998      -6.19146493       0.00002154      -0.00025976      -0.00004377
O       -1.29713572       4.34377429      -7.75870770      -0.00002104      -0.00036754       0.00005132
H       -2.07221819       4.46487079      -8.32329366      -0.00026843       0.00002271      -0.00015113
H       -0.78089780       5.15248194      -7.89019415       0.00034839       0.00032900       0.00005273
