10
Properties=species:S:1:pos:R:3:forces:R:3 -1708.21424=T energy=-21130.008565630447 free_energy=-21130.008565630447 pbc="F F F"
S      -12.31775758      -1.08631037     -26.38910243      -0.00007747       0.00001497      -0.00014133
O      -12.79408646      -1.52352882     -27.66781601       0.00003394       0.00001806       0.00009990
O      -13.15520299      -0.43784059     -25.40728836       0.00001958      -0.00000447       0.00001264
O      -11.62125060      -2.35794644     -25.70223936       0.00000334      -0.00002339      -0.00001334
O      -11.05893509      -0.11030715     -26.60000785       0.00000754       0.00001606       0.00003541
H      -11.45587492      -2.15811914     -24.76460592       0.00000212      -0.00001252       0.00002625
H      -10.66188305      -0.29888692     -27.46773585       0.00001492      -0.00000620      -0.00001717
O      -15.02208960       0.70462149     -23.69464847       0.00028014      -0.00065850       0.00024254
H      -14.52456795       0.72144152     -24.52097028      -0.00007476      -0.00011814       0.00019340
H      -14.70121092      -0.11577628     -23.30401932      -0.00020926       0.00077420      -0.00043833
