10
Properties=species:S:1:pos:R:3:forces:R:3 -1708.28237=T energy=-21130.057798682246 free_energy=-21130.057798682246 pbc="F F F"
S        0.66283335       3.60234440     -26.99290274      -0.00003723       0.00005649      -0.00006047
O        0.44434192       2.75529922     -28.15083776       0.00005910       0.00006366       0.00009418
O        0.67422487       5.02844694     -27.10269719       0.00002254       0.00001442      -0.00001419
O       -0.36025347       3.13405028     -25.84103310      -0.00014392      -0.00003913       0.00005311
O        2.00116004       3.16019430     -26.25183423      -0.00007039      -0.00011948      -0.00003165
H       -1.27061194       3.22802477     -26.17352053       0.00010057      -0.00002258       0.00002075
H        2.06374214       2.18882909     -26.26125363       0.00004062       0.00009191       0.00001711
O       -0.05066554       1.16817863     -30.35564379      -0.00015809       0.00049185       0.00055048
H        0.22495981       2.01489599     -29.98286853      -0.00006514      -0.00094022      -0.00029343
H       -0.23963480       0.67314574     -29.55056912       0.00025191       0.00040284      -0.00033589
