10
Properties=species:S:1:pos:R:3:forces:R:3 -1708.22607=T energy=-21129.99497412705 free_energy=-21129.99497412705 pbc="F F F"
S       -0.12882657      -8.10994679     -32.48515855       0.00012877       0.00008882      -0.00026869
O        0.15751188      -9.37458787     -31.84980223       0.00033015      -0.00001025       0.00017858
O       -0.07547606      -7.90934301     -33.90265842       0.00008498      -0.00012028       0.00004864
O       -1.57629692      -7.67421510     -31.94213047       0.00009802      -0.00074445       0.00036794
O        0.80588023      -6.98060518     -31.83346954      -0.00011909       0.00028051      -0.00043519
H       -1.95967817      -7.02824952     -32.56008358      -0.00010478       0.00011594      -0.00030281
H        0.92152563      -7.16875428     -30.88581862       0.00001668       0.00017799       0.00053806
O        0.58633348     -12.19132330     -31.46951087      -0.00002349      -0.00042215      -0.00024503
H        0.58571667     -11.23691996     -31.32464047       0.00005236       0.00018532      -0.00006524
H        0.17109331     -12.26864806     -32.33570213      -0.00046357       0.00044854       0.00018366
