10
Properties=species:S:1:pos:R:3:forces:R:3 -1708.17895=T energy=-21130.296880411905 free_energy=-21130.296880411905 pbc="F F F"
S       -1.92888907      -7.73277424     -32.35589864      -0.00064075      -0.00011329      -0.00036031
O       -3.29613488      -7.65433879     -32.82317600       0.00065613       0.00026399       0.00042886
O       -1.14151595      -6.54761992     -32.16955754      -0.00012660      -0.00019014      -0.00007725
O       -1.88826133      -8.65848025     -31.05787080      -0.00007717       0.00022262       0.00011730
O       -1.08670544      -8.68663245     -33.33178595      -0.00016482       0.00007278       0.00015059
H       -2.57548567      -8.33053088     -30.40647967      -0.00010940      -0.00005925      -0.00001331
H       -1.60513692      -9.49467235     -33.49293959       0.00031164      -0.00017249      -0.00023014
O       -3.96434166      -7.65229230     -29.59391994      -0.00034000       0.00036721      -0.00064631
H       -3.72628350      -6.72116716     -29.49032894      -0.00011814      -0.00033325      -0.00001407
H       -4.52331755      -7.65953428     -30.38338842       0.00060914      -0.00005808       0.00064482
