10
Properties=species:S:1:pos:R:3:forces:R:3 -1708.23464=T energy=-21130.008562285228 free_energy=-21130.008562285228 pbc="F F F"
S       -1.54863044      -0.24613535       0.59082927       0.00000354      -0.00002301       0.00002472
O       -0.70276721      -0.89252338      -0.36826672       0.00001502       0.00001991      -0.00000167
O       -2.37308523       0.89842456       0.28098064      -0.00000864       0.00001556      -0.00000805
O       -2.48229864      -1.38922317       1.21979221       0.00003312       0.00000387      -0.00004092
O       -0.66970557       0.18290418       1.86564387      -0.00006166       0.00002137       0.00000026
H       -3.19546682      -0.96786206       1.72997653      -0.00002834      -0.00000836       0.00000036
H        0.12458621      -0.37765029       1.89787467       0.00004917      -0.00003244       0.00002084
O       -3.90578977       3.03039982      -0.62886596       0.00044331       0.00057776      -0.00031481
H       -3.04373020       2.64237532      -0.43678971       0.00016415      -0.00000417      -0.00002191
H       -4.49156668       2.30473214      -0.38634858      -0.00060955      -0.00057046       0.00034115
