10
Properties=species:S:1:pos:R:3:forces:R:3 -1708.39821=T energy=-21130.24447971524 free_energy=-21130.24447971524 pbc="F F F"
S       -1.89460748      -8.77348848     -39.74254348       0.00001211      -0.00006111      -0.00014729
O       -1.15476335      -9.42332759     -40.79056001      -0.00004566       0.00008190       0.00014770
O       -3.09141670      -8.00402479     -39.99668196       0.00000393       0.00007582       0.00007811
O       -2.19759083      -9.86114466     -38.62041190      -0.00006716      -0.00000590       0.00014257
O       -0.90919236      -7.75941687     -38.96957421      -0.00015263       0.00007881      -0.00008552
H       -3.02036368      -9.59496050     -38.10375329       0.00007548      -0.00000706      -0.00000302
H       -0.03816259      -8.18436881     -38.88657812       0.00024575      -0.00010251      -0.00004799
O       -4.56403987      -9.00713393     -37.67386569      -0.00004866      -0.00016617       0.00008889
H       -5.18497558      -9.59788033     -38.12055850      -0.00000595      -0.00000735      -0.00005456
H       -4.47688287      -8.25831947     -38.28297415      -0.00001729       0.00011367      -0.00011883
