10
Properties=species:S:1:pos:R:3:forces:R:3 -1708.27676=T energy=-21130.00856053659 free_energy=-21130.00856053659 pbc="F F F"
S       -4.20907902       3.52684051       1.65950284       0.00040472       0.00012819       0.00004551
O       -2.77900050       3.44326507       1.69233701      -0.00038326       0.00008851      -0.00006923
O       -4.94698869       4.11067639       0.56389312       0.00004411      -0.00001284       0.00000572
O       -4.75902390       2.04016565       1.90712794      -0.00021839      -0.00020120       0.00003479
O       -4.72441745       4.28025244       2.98183176       0.00013907      -0.00001803       0.00006831
H       -5.71012812       2.01836278       1.70371852       0.00017465      -0.00001673      -0.00002595
H       -4.04343765       4.19755801       3.67146649      -0.00015852       0.00003235      -0.00008356
O       -6.09026642       5.21531712      -1.71527107      -0.00026865      -0.00036578      -0.00041650
H       -5.54910442       5.30898651      -0.92220886       0.00061054       0.00037536       0.00066611
H       -6.32172603       4.28100644      -1.66982931      -0.00034409      -0.00000988      -0.00022507
