10
Properties=species:S:1:pos:R:3:forces:R:3 -1708.31922=T energy=-21130.267735332025 free_energy=-21130.267735332025 pbc="F F F"
S       -2.23565972      -1.97547447     -14.40741720       0.00004137      -0.00004349       0.00002899
O       -1.78454300      -2.51872155     -13.15393981       0.00000846       0.00001436       0.00004196
O       -3.37752654      -2.49985578     -15.10841722      -0.00006711      -0.00003401      -0.00007331
O       -2.36985301      -0.40180338     -14.20144665      -0.00000703       0.00002950       0.00009131
O       -1.02519000      -2.03424049     -15.48056202       0.00012758       0.00010332       0.00007198
H       -2.58894043       0.03464062     -15.07961321      -0.00000791       0.00002818      -0.00005161
H       -0.26502587      -1.56065335     -15.10260073      -0.00008444      -0.00008778      -0.00009872
O       -2.79395036       0.48135060     -16.70652965       0.00026684       0.00004540       0.00002963
H       -2.03014923       0.00747195     -17.06287628      -0.00020795       0.00002807       0.00004082
H       -3.54147246      -0.08538668     -16.94145315      -0.00006957      -0.00008354      -0.00008065
