10
Properties=species:S:1:pos:R:3:forces:R:3 -1708.40220=T energy=-21130.268706054136 free_energy=-21130.268706054136 pbc="F F F"
S       -8.62004709      -8.77893510     -29.47691742       0.00025300      -0.00001225      -0.00059891
O       -7.83858612      -9.95753401     -29.76344043      -0.00016499       0.00026631      -0.00001240
O       -8.59796807      -7.61295751     -30.31796026      -0.00001791      -0.00037682       0.00031286
O      -10.13646962      -9.31537415     -29.35226671       0.00044027      -0.00072271      -0.00020981
O       -8.33621947      -8.28909579     -27.98935876      -0.00017250       0.00035957       0.00013415
H      -10.70039448      -8.57424077     -29.07388401      -0.00035911       0.00072017       0.00029305
H       -8.15278061      -9.08996764     -27.40833688      -0.00004692      -0.00018900       0.00000370
O       -7.81769726     -10.64603260     -26.80379014      -0.00046493      -0.00052881       0.00001889
H       -7.51536660     -10.97846210     -27.66164329      -0.00010842       0.00006169       0.00018787
H       -8.67703475     -11.06981911     -26.67667897       0.00064157       0.00042195      -0.00012939
