10
Properties=species:S:1:pos:R:3:forces:R:3 -1708.21491=T energy=-21130.294795478003 free_energy=-21130.294795478003 pbc="F F F"
S       -6.35335564     -10.05604926     -29.58556954       0.00096475       0.00003078      -0.00018195
O       -5.72957523      -9.49070838     -30.74936482      -0.00041997      -0.00006366       0.00010085
O       -7.64727057      -9.58043692     -29.13392860      -0.00045431       0.00018179      -0.00003290
O       -6.36970291     -11.62724768     -29.72952476      -0.00019962      -0.00011760       0.00008281
O       -5.34283670      -9.95049003     -28.33057193       0.00000843       0.00041817       0.00032705
H       -6.99612211     -12.01970655     -29.04570105       0.00004988      -0.00005745      -0.00007252
H       -5.34064899      -9.02871052     -28.01952444      -0.00002548      -0.00046649      -0.00016271
O       -8.16852280     -12.28102270     -27.83289967       0.00002300       0.00034718      -0.00000937
H       -8.57099128     -11.41004568     -27.96604304       0.00019408      -0.00031270       0.00011560
H       -7.69054599     -12.19399359     -26.99738538      -0.00014080       0.00003997      -0.00016680
