10
Properties=species:S:1:pos:R:3:forces:R:3 -1708.36975=T energy=-21130.296880310532 free_energy=-21130.296880310532 pbc="F F F"
S       -0.79864144       3.87811048     -15.87354552       0.00019063      -0.00031112      -0.00006227
O       -1.89202447       3.05487358     -15.44223408      -0.00035238      -0.00028479       0.00025415
O       -0.97742062       4.87390389     -16.90805029       0.00002575       0.00065839      -0.00054866
O       -0.21252582       4.57864845     -14.55554478       0.00047743       0.00019725       0.00039202
O        0.47774278       2.99318163     -16.23585255       0.00009369       0.00005481       0.00022954
H        0.52420543       5.15821028     -14.81824736      -0.00043570      -0.00012144      -0.00002046
H        0.38422219       2.66283353     -17.17726263      -0.00000181      -0.00009884      -0.00020262
O        0.02644066       2.42087503     -18.86908043       0.00070778      -0.00030744      -0.00019175
H       -0.19238589       3.34888053     -19.03229179      -0.00010504       0.00051977       0.00007228
H       -0.83465233       1.98203083     -18.85200338      -0.00060043      -0.00030670       0.00007774
