10
Properties=species:S:1:pos:R:3:forces:R:3 -1708.27338=T energy=-21130.24447905633 free_energy=-21130.24447905633 pbc="F F F"
S       -7.64215634       8.30534510      -8.49817626      -0.00005737       0.00000813       0.00009451
O       -7.00907634       7.76875511      -9.68154282      -0.00005567       0.00005567      -0.00007772
O       -8.36635139       9.54774859      -8.50326390       0.00001079      -0.00001550      -0.00006866
O       -8.62989971       7.13653660      -7.99309991      -0.00018156       0.00011486       0.00032677
O       -6.57689104       8.37273635      -7.31725124       0.00003986      -0.00018197       0.00002409
H       -9.18131401       7.49234750      -7.27508787       0.00027442      -0.00010091      -0.00034595
H       -5.80527683       7.75800059      -7.52105587       0.00002352       0.00013584       0.00000820
O       -4.57382298       6.88635905      -8.31883451      -0.00010449      -0.00010955       0.00020134
H       -3.95933804       7.56232681      -8.63434954       0.00012191       0.00012794      -0.00006564
H       -5.14904600       6.72145240      -9.08124204      -0.00007129      -0.00003454      -0.00009675
