10
Properties=species:S:1:pos:R:3:forces:R:3 -1708.36713=T energy=-21130.29795696462 free_energy=-21130.29795696462 pbc="F F F"
S       -8.74498052       6.12251966       0.85186445      -0.00020693      -0.00020157       0.00025993
O       -9.23092210       5.27116679      -0.21630830      -0.00002646       0.00000489      -0.00015247
O       -7.79105279       7.16056554       0.59133196       0.00009388       0.00010574       0.00000554
O      -10.00757699       6.67897913       1.65073526      -0.00012165       0.00007570      -0.00016814
O       -8.12051479       5.21378843       2.01494602      -0.00005262       0.00001432      -0.00006294
H      -10.71834331       6.93792224       0.99093549       0.00015826       0.00000016       0.00012475
H       -8.76548227       4.51920035       2.23687651       0.00009590       0.00007149      -0.00000295
O      -11.75058115       7.02742710      -0.41018747       0.00031787      -0.00041076      -0.00000102
H      -11.42681645       7.76275286      -0.94739035       0.00003236      -0.00015110      -0.00005469
H      -11.33002569       6.24795574      -0.80223272      -0.00029059       0.00049111       0.00005196
