10
Properties=species:S:1:pos:R:3:forces:R:3 -1708.23605=T energy=-21130.00856210783 free_energy=-21130.00856210783 pbc="F F F"
S       -7.17812272      -8.92724558     -26.52219171      -0.00012722       0.00009044       0.00004637
O       -6.41109042      -9.96465634     -27.14557167       0.00012243      -0.00007749      -0.00000042
O       -8.58955957      -8.73091752     -26.75683690       0.00000072       0.00006896       0.00006790
O       -6.94118108      -9.07108121     -24.94195203       0.00008422      -0.00015387      -0.00023487
O       -6.48601328      -7.50787741     -26.81902927       0.00003678      -0.00007692       0.00003099
H       -7.58767629      -8.51417657     -24.47468692      -0.00013492       0.00010216       0.00007233
H       -5.54703083      -7.65731996     -27.02431639      -0.00002645       0.00006755       0.00000286
O      -11.30519246      -8.65104545     -27.34131108      -0.00015721       0.00002218      -0.00018476
H      -10.38635477      -8.57060477     -27.62392775       0.00006503      -0.00011496       0.00006139
H      -11.19193949      -8.87293424     -26.41044656       0.00013662       0.00007171       0.00013823
