10
Properties=species:S:1:pos:R:3:forces:R:3 -1708.25310=T energy=-21130.267734825175 free_energy=-21130.267734825175 pbc="F F F"
S       -7.54684189     -13.05832512     -21.47983961       0.00036929      -0.00030294       0.00023861
O       -6.91262180     -13.83958238     -22.50806235      -0.00022399       0.00023043       0.00026524
O       -7.94123694     -11.68980954     -21.68438881      -0.00010610       0.00037539      -0.00040072
O       -8.76692925     -13.92497394     -20.93469239      -0.00005001      -0.00006449       0.00009573
O       -6.59485722     -13.02607042     -20.17100889      -0.00007661      -0.00005558      -0.00007834
H       -9.18250145     -13.46148729     -20.14593375       0.00002299      -0.00002820      -0.00000226
H       -6.41574033     -13.94426000     -19.90676244       0.00003799      -0.00010909      -0.00004651
O       -9.55476025     -12.53046655     -18.77361394       0.00028717       0.00017667      -0.00022375
H       -9.66728689     -11.66335081     -19.18669652       0.00009333      -0.00026768       0.00024725
H       -8.66202822     -12.49086410     -18.40428545      -0.00035399       0.00004557      -0.00009533
