10
Properties=species:S:1:pos:R:3:forces:R:3 -1708.40525=T energy=-21130.244479360445 free_energy=-21130.244479360445 pbc="F F F"
S       -7.59111376      -8.99601966     -28.60588804       0.00010228      -0.00010801       0.00011130
O       -6.58292448      -9.37816068     -29.55750961      -0.00002754       0.00001198       0.00006354
O       -8.70050399      -8.13606513     -28.95056194      -0.00010419       0.00007737      -0.00000170
O       -8.14747375     -10.32651064     -27.93197387      -0.00004566       0.00003946      -0.00005183
O       -6.87330671      -8.26452031     -27.36229290       0.00029144      -0.00012238      -0.00003633
H       -9.08575606     -10.17161058     -27.59961687       0.00002863      -0.00007332      -0.00001516
H       -6.04034765      -8.73026278     -27.17398785      -0.00028569       0.00013610      -0.00005352
O      -10.70519601      -9.65362473     -27.45235984       0.00000665      -0.00007307       0.00003017
H      -10.48229504      -8.77498339     -27.79535719      -0.00003868       0.00004255      -0.00008753
H      -11.16695185     -10.07876461     -28.18728983       0.00007266       0.00006929       0.00004116
