10
Properties=species:S:1:pos:R:3:forces:R:3 -1708.28642=T energy=-21129.973234629997 free_energy=-21129.973234629997 pbc="F F F"
S        0.35317108      -9.44553887     -33.07451649      -0.00025613      -0.00006977      -0.00014585
O        1.72773661      -9.07127278     -32.91731922       0.00031376       0.00013047      -0.00002202
O       -0.75231361      -8.57217927     -32.75901568      -0.00001645       0.00002620       0.00000868
O        0.19335987      -9.95362030     -34.58948059      -0.00048126      -0.00009029      -0.00001368
O        0.07175674     -10.80195937     -32.25493149       0.00002023      -0.00011320       0.00005361
H       -0.75094997     -10.09117810     -34.77761495       0.00046826       0.00007714       0.00012195
H        0.90102022     -11.30659979     -32.20205691      -0.00003941       0.00006372       0.00001316
O       -2.70889159      -9.08763173     -30.63129036       0.00004864       0.00002548      -0.00002362
H       -2.14098234      -8.70695327     -31.31182092       0.00005461       0.00002190       0.00007744
H       -2.38326352      -9.99091314     -30.55613633      -0.00011243      -0.00007179      -0.00006980
