10
Properties=species:S:1:pos:R:3:forces:R:3 -1708.23992=T energy=-21130.00916333515 free_energy=-21130.00916333515 pbc="F F F"
S        1.88349093       2.47035393     -25.56794022      -0.00001958      -0.00001763      -0.00009422
O        3.08613216       3.15638739     -25.19897957       0.00004399       0.00002408       0.00001657
O        1.58399932       2.05889066     -26.91974858       0.00000608      -0.00001466       0.00002748
O        1.77684571       1.18871478     -24.60812590      -0.00002932      -0.00005157       0.00002158
O        0.61495334       3.33146981     -25.08802021       0.00001323       0.00007927       0.00007029
H        1.08824363       0.59372954     -24.95228222      -0.00001805       0.00000733       0.00000337
H        0.88824249       3.90374588     -24.35045661      -0.00000562      -0.00002744      -0.00006296
O        1.16389518       1.33563122     -29.57633256      -0.00001906       0.00011579      -0.00015964
H        1.75042515       1.62748728     -28.86813950       0.00019234       0.00006795       0.00012140
H        0.31949585       1.30051148     -29.11336225      -0.00016397      -0.00018316       0.00005619
