10
Properties=species:S:1:pos:R:3:forces:R:3 -1708.39641=T energy=-21130.24446309051 free_energy=-21130.24446309051 pbc="F F F"
S       -7.88778896       6.68366035      -9.64529854       0.00001739       0.00012304      -0.00011077
O       -6.84772907       5.91473484     -10.29057577       0.00012708       0.00027132      -0.00022918
O       -8.74066112       7.58982984     -10.36622655      -0.00027931      -0.00013727       0.00013633
O       -8.81138294       5.59017231      -8.90502408       0.00011937       0.00018620       0.00014958
O       -7.26525196       7.48008968      -8.41575805       0.00009757       0.00030851      -0.00027528
H       -9.61175733       6.03739043      -8.57999142       0.00049240      -0.00036629       0.00006465
H       -6.38241520       7.06963384      -8.15615327      -0.00014681       0.00019819      -0.00007227
O       -4.84703591       6.32882249      -8.19969359      -0.00011486      -0.00006339       0.00008508
H       -4.27712170       6.96999320      -8.64490007      -0.00013550      -0.00038570       0.00015533
H       -5.12651151       5.73310034      -8.91131043      -0.00017747      -0.00013442       0.00009652
