10
Properties=species:S:1:pos:R:3:forces:R:3 -1708.41524=T energy=-21130.268705040435 free_energy=-21130.268705040435 pbc="F F F"
S       -2.07220356       2.15277600     -10.69344448       0.00002812      -0.00021811      -0.00011284
O       -2.02582786       1.99592566      -9.26496082      -0.00002775       0.00004933       0.00013566
O       -1.04559499       1.63459768     -11.56488963      -0.00001389      -0.00000799      -0.00004625
O       -3.50051234       1.64132327     -11.17483111       0.00005448      -0.00001076      -0.00014608
O       -2.15795995       3.72320347     -11.05293691       0.00010294       0.00010887      -0.00008886
H       -3.49840669       1.55437332     -12.17736374      -0.00000650      -0.00001101       0.00010491
H       -2.89710077       4.11040408     -10.55437543      -0.00012176       0.00004838       0.00006181
O       -3.07158307       1.45681191     -13.82285559       0.00004964       0.00000996       0.00002892
H       -3.10029003       2.36351719     -14.15638917      -0.00003943       0.00007666      -0.00001822
H       -2.13440206       1.30544218     -13.63156033      -0.00002591      -0.00004540       0.00008073
