11
-756.700085215
S  -0.582149  0.123138  0.066265
O  -1.210390  1.388949  -0.192223
O  0.060090  -0.140373  1.345598
O  -1.729752  -0.973829  -0.174577
O  0.427440  -0.261772  -1.074772
H  -1.400162  -1.845981  0.083063
H  1.401710  -0.169356  -0.719909
N  2.805247  -0.017702  -0.026035
H  2.572362  -0.071292  0.963271
H  3.244071  0.881455  -0.198474
H  3.480574  -0.744914  -0.238156
