11
-756.702646476
S  0.615468  -0.116840  -0.091247
O  -0.062391  -0.142417  -1.368711
O  1.822186  -0.865415  0.157495
O  0.948427  1.447365  0.160680
O  -0.406410  -0.437454  1.049263
H  1.645359  1.507116  0.829175
H  -1.376766  -0.233933  0.726520
N  -2.766082  0.040487  0.051826
H  -3.458462  -0.685036  0.207907
H  -3.185927  0.935761  0.280581
H  -2.523613  0.045480  -0.936834
