11
-756.702646703
S  0.615773  -0.117038  -0.091090
O  -0.061548  -0.146076  -1.368691
O  1.823865  -0.862707  0.159401
O  0.945257  1.448475  0.157967
O  -0.405919  -0.437584  1.049964
H  1.639588  1.511476  0.828844
H  -1.376102  -0.233554  0.727353
N  -2.765860  0.040158  0.051769
H  -2.524258  0.038407  -0.937155
H  -3.181506  0.938892  0.274838
H  -3.462300  -0.680578  0.212053
