11
-756.702646731
S  -0.615785  0.116874  -0.091305
O  -1.822661  0.864910  0.158004
O  0.061604  0.142711  -1.368943
O  0.406408  0.437823  1.049125
O  -0.947935  -1.447559  0.160475
H  1.376384  0.233027  0.726682
H  -1.642754  -1.508235  0.831070
N  2.766856  -0.040316  0.051838
H  3.460215  0.684048  0.209332
H  3.186150  -0.936370  0.278692
H  2.525243  -0.043330  -0.937054
