11
-756.702646738
S  0.615792  -0.116941  -0.091182
O  1.823310  -0.863693  0.158999
O  -0.061347  -0.144561  -1.368930
O  -0.406278  -0.437660  1.049397
O  0.946447  1.448031  0.159095
H  -1.376214  -0.232739  0.726887
H  1.640437  1.510043  0.830437
N  -2.766351  0.040345  0.051770
H  -3.187698  0.935117  0.279760
H  -2.523859  0.045240  -0.936896
H  -3.457941  -0.685950  0.207850
