11
-756.702646762
S  0.615831  -0.117008  -0.091133
O  -0.061351  -0.145570  -1.368864
O  1.823409  -0.863427  0.159526
O  0.946214  1.448215  0.157972
O  -0.406103  -0.437025  1.049834
H  1.638847  1.510993  0.830640
H  -1.376143  -0.232316  0.727273
N  -2.766231  0.040246  0.051770
H  -3.458465  -0.685398  0.208253
H  -2.523932  0.044167  -0.936967
H  -3.187345  0.935419  0.278800
