11
-756.702646691
S  0.615720  -0.116799  -0.091377
O  -0.062172  -0.142464  -1.368716
O  1.822722  -0.864852  0.157290
O  0.947602  1.447646  0.160510
O  -0.405940  -0.438175  1.049548
H  1.641045  1.508410  0.832518
H  -1.375798  -0.233329  0.727546
N  -2.766395  0.040219  0.051828
H  -2.523334  0.046677  -0.936705
H  -3.458150  -0.686315  0.206125
H  -3.188218  0.934570  0.280697
