11
-756.702646697
S  0.615766  -0.117080  -0.091040
O  1.823912  -0.862513  0.159854
O  -0.061530  -0.146873  -1.368641
O  -0.405839  -0.437060  1.050246
O  0.945073  1.448611  0.157080
H  -1.376146  -0.233666  0.727465
H  1.638214  1.512222  0.829136
N  -2.765690  0.040116  0.051734
H  -2.524009  0.038121  -0.937169
H  -3.181182  0.938967  0.274594
H  -3.462232  -0.680491  0.212159
