11
-756.702646601
S  -0.616041  -0.117108  0.091033
O  -1.824901  -0.860838  -0.161288
O  0.060198  -0.148363  1.369105
O  0.405885  -0.437919  -1.049751
O  -0.943014  1.449280  -0.156390
H  1.375812  -0.232852  -0.727039
H  -1.633704  1.514334  -0.830845
N  2.765750  0.040252  -0.051589
H  3.187156  0.935137  -0.279097
H  2.524706  0.044023  0.937432
H  3.457087  -0.685961  -0.209268
