11
-756.702646763
S  0.615807  0.116913  0.091223
O  -0.061292  0.144245  1.368994
O  1.823475  0.863496  -0.158729
O  0.946041  -1.448114  -0.159427
O  -0.406142  0.438238  -1.049347
H  1.639216  -1.510257  -0.831593
H  -1.376167  0.233365  -0.726828
N  -2.766187  -0.040186  -0.051753
H  -3.185528  -0.936154  -0.278835
H  -2.524392  -0.043504  0.937091
H  -3.459386  0.684319  -0.209066
