11
-756.702646753
S  -0.615699  0.117039  -0.091124
O  0.061646  0.145436  -1.368726
O  -1.823326  0.863459  0.159183
O  -0.946099  -1.448285  0.158088
O  0.406047  0.437141  1.050004
H  -1.639165  -1.510902  0.830316
H  1.376266  0.232513  0.727505
N  2.765760  -0.040233  0.051749
H  3.458813  0.684497  0.208706
H  2.522935  -0.042966  -0.936872
H  3.185876  -0.936138  0.277692
