11
-756.702646772
S  -0.615878  0.116976  -0.091146
O  0.061160  0.145421  -1.368921
O  -1.823435  0.863440  0.159552
O  -0.946153  -1.448222  0.158161
O  0.406161  0.437200  1.049672
H  -1.638648  -1.511007  0.830965
H  1.376166  0.232796  0.727047
N  2.766375  -0.040198  0.051743
H  2.524450  -0.043622  -0.937082
H  3.186415  -0.935874  0.278702
H  3.459168  0.684759  0.208794
