11
-756.702646702
S  0.615615  -0.117035  -0.091146
O  -0.062013  -0.144448  -1.368633
O  1.822599  -0.864687  0.158736
O  0.947622  1.447880  0.158356
O  -0.406244  -0.436388  1.050030
H  1.640337  1.509802  0.831010
H  -1.376636  -0.232458  0.727217
N  -2.765851  0.040183  0.051810
H  -2.523233  0.043223  -0.936879
H  -3.185762  0.936137  0.277999
H  -3.459294  -0.684272  0.208404
