11
-756.702646761
S  -0.615742  0.116951  -0.091202
O  0.061685  0.144305  -1.368791
O  -1.823123  0.864002  0.158662
O  -0.946745  -1.447968  0.159087
O  0.406163  0.437460  1.049631
H  -1.640570  -1.509812  0.830607
H  1.376208  0.232893  0.727032
N  2.766168  -0.040248  0.051772
H  2.523805  -0.045361  -0.936944
H  3.458321  0.685612  0.207481
H  3.187102  -0.935198  0.279937
