11
-756.702646595
S  0.615555  -0.116961  -0.091304
O  -0.062601  -0.141689  -1.368567
O  1.820783  -0.867769  0.157553
O  0.951446  1.446800  0.159529
O  -0.406687  -0.434788  1.050084
H  1.643993  1.506504  0.832569
H  -1.376597  -0.230229  0.726981
N  -2.766916  0.040223  0.051810
H  -3.457471  -0.687383  0.206415
H  -3.190257  0.933996  0.280119
H  -2.523655  0.046503  -0.936688
