11
-756.702646765
S  -0.615892  -0.117108  0.091057
O  -1.823928  -0.862521  -0.160284
O  0.061010  -0.146940  1.368840
O  0.406099  -0.436977  -1.050028
O  -0.945157  1.448653  -0.157102
H  1.376133  -0.232585  -0.727101
H  -1.637990  1.512292  -0.829460
N  2.766062  0.040268  -0.051659
H  3.185516  0.936620  -0.277042
H  3.459261  -0.683932  -0.210418
H  2.524725  0.041734  0.937311
