11
-756.702646720
S  0.615646  -0.117063  -0.091099
O  -0.062199  -0.145340  -1.368452
O  1.822386  -0.864976  0.159236
O  0.948144  1.447868  0.157286
O  -0.406194  -0.435254  1.050481
H  1.640932  1.510080  0.829840
H  -1.376390  -0.231883  0.727267
N  -2.766124  0.040162  0.051760
H  -3.184353  0.937307  0.276356
H  -3.460584  -0.682836  0.210471
H  -2.524171  0.040832  -0.937079
