11
-756.702646767
S  0.615794  -0.116940  -0.091202
O  -0.061420  -0.144543  -1.368854
O  1.823058  -0.864078  0.159036
O  0.946923  1.447956  0.158783
O  -0.406284  -0.437180  1.049569
H  1.639920  1.510004  0.831146
H  -1.376190  -0.232581  0.726929
N  -2.766388  0.040262  0.051755
H  -3.186696  0.935772  0.278789
H  -3.458852  -0.684984  0.208860
H  -2.524401  0.043755  -0.937058
