11
-756.702646616
S  0.615668  -0.117035  -0.091122
O  1.822768  -0.864447  0.159084
O  -0.061789  -0.144855  -1.368700
O  -0.406280  -0.436271  1.050025
O  0.947430  1.447919  0.158030
H  -1.376722  -0.233173  0.726887
H  1.639654  1.510226  0.831156
N  -2.765920  0.040144  0.051797
H  -3.184926  0.936569  0.277875
H  -3.460073  -0.683502  0.209064
H  -2.524214  0.042673  -0.937119
