11
-756.702646623
S  0.615491  -0.116860  -0.091243
O  -0.062127  -0.141863  -1.368832
O  1.822014  -0.865788  0.157376
O  0.948924  1.447227  0.160986
O  -0.406665  -0.437438  1.049152
H  1.645101  1.506911  0.830261
H  -1.376927  -0.233219  0.726293
N  -2.766269  0.040465  0.051806
H  -3.457861  -0.686054  0.206841
H  -2.523912  0.046867  -0.936890
H  -3.187550  0.934896  0.281294
