11
-756.702646763
S  0.615884  -0.116976  -0.091135
O  -0.061060  -0.146125  -1.368938
O  1.824068  -0.862374  0.159740
O  0.944807  1.448566  0.158057
O  -0.405935  -0.437994  1.049627
H  1.637695  1.511857  0.830417
H  -1.375899  -0.233195  0.727208
N  -2.766053  0.040246  0.051745
H  -3.458747  -0.684761  0.208918
H  -2.523792  0.043444  -0.936988
H  -3.186072  0.935968  0.278504
