11
-756.702646508
S  0.615873  -0.117118  -0.090907
O  -0.061147  -0.147841  -1.368690
O  1.823931  -0.862495  0.160806
O  0.945268  1.448654  0.156507
O  -0.406178  -0.436257  1.050040
H  1.641160  1.511892  0.825782
H  -1.376213  -0.231904  0.726861
N  -2.766271  0.040431  0.051697
H  -3.191538  0.932123  0.284537
H  -2.523334  0.051775  -0.936853
H  -3.455141  -0.689504  0.202997
