11
-756.702645655
S  -0.615263  -0.117121  0.090901
O  -1.822039  -0.865406  -0.158219
O  0.063265  -0.145050  1.367924
O  0.406332  -0.434957  -1.050900
O  -0.948799  1.447629  -0.157736
H  1.377412  -0.233928  -0.726929
H  -1.646413  1.509106  -0.825294
N  2.765376  0.040576  -0.051852
H  2.519526  0.050293  0.936050
H  3.188996  0.933751  -0.282014
H  3.456978  -0.687040  -0.201825
