11
-756.702646749
S  -0.615945  -0.117016  0.091052
O  -1.824468  -0.861718  -0.160237
O  0.060704  -0.146878  1.369002
O  0.405979  -0.438189  -1.049554
O  -0.944014  1.448848  -0.157555
H  1.376004  -0.233146  -0.727028
H  -1.636091  1.512805  -0.830688
N  2.765885  0.040207  -0.051725
H  3.184982  0.936685  -0.277265
H  3.459319  -0.683827  -0.210147
H  2.524097  0.041769  0.937137
