11
-756.702646781
S  -0.615780  0.117001  -0.091148
O  0.061457  0.145128  -1.368817
O  -1.823176  0.863815  0.159271
O  -0.946643  -1.448117  0.158283
O  0.406186  0.436974  1.049788
H  -1.639719  -1.510427  0.830540
H  1.376232  0.232639  0.727030
N  2.766257  -0.040210  0.051760
H  3.459851  0.683786  0.209698
H  3.185333  -0.936617  0.277668
H  2.524381  -0.042322  -0.937086
