11
-756.702646778
S  0.615784  -0.117031  -0.091130
O  -0.061521  -0.145748  -1.368729
O  1.823346  -0.863476  0.159470
O  0.946175  1.448312  0.157855
O  -0.406073  -0.436902  1.050019
H  1.639536  1.511034  0.829765
H  -1.376080  -0.232452  0.727263
N  -2.766042  0.040236  0.051724
H  -3.459171  -0.684282  0.209359
H  -3.185812  0.936273  0.277819
H  -2.524140  0.042775  -0.937113
