11
-756.702646759
S  -0.615742  0.116936  -0.091213
O  0.061552  0.144406  -1.368813
O  -1.823107  0.864066  0.158816
O  -0.946866  -1.447958  0.158926
O  0.406170  0.437302  1.049637
H  -1.640152  -1.509893  0.831000
H  1.376192  0.232795  0.727008
N  2.766288  -0.040235  0.051772
H  3.458541  0.685452  0.207911
H  3.187132  -0.935332  0.279549
H  2.524161  -0.044876  -0.937001
