11
-756.702646657
S  0.615721  -0.116853  -0.091252
O  1.823159  -0.863817  0.158641
O  -0.061740  -0.144267  -1.368860
O  -0.406027  -0.437837  1.049431
O  0.946462  1.447991  0.159285
H  -1.376039  -0.233381  0.727171
H  1.640018  1.509640  0.831132
N  -2.766076  0.040326  0.051869
H  -3.186730  0.935626  0.279044
H  -3.458200  -0.685374  0.208239
H  -2.522883  0.044291  -0.936626
