11
-756.702646777
S  0.615839  0.116946  0.091185
O  1.823237  0.863776  -0.159149
O  -0.061353  0.144846  1.368888
O  -0.406181  0.437281  -1.049645
O  0.946531  -1.448049  -0.158654
H  -1.376154  0.232784  -0.727035
H  1.639785  -1.510353  -0.830725
N  -2.766410  -0.040224  -0.051749
H  -3.459386  0.684444  -0.209243
H  -3.186147  -0.936143  -0.278311
H  -2.524516  -0.043131  0.937076
