11
-756.702646736
S  0.615727  -0.116964  -0.091225
O  -0.061471  -0.143801  -1.368923
O  1.822653  -0.864740  0.158739
O  0.947859  1.447699  0.159354
O  -0.406470  -0.436960  1.049462
H  1.642129  1.508879  0.830481
H  -1.376399  -0.232410  0.726695
N  -2.766616  0.040314  0.051806
H  -3.459037  -0.685145  0.208310
H  -2.525219  0.044829  -0.937158
H  -3.187364  0.935486  0.279564
