11
-756.702646771
S  -0.615844  0.116952  -0.091212
O  -1.823238  0.863799  0.159095
O  0.061262  0.144602  -1.368944
O  0.406240  0.437500  1.049489
O  -0.946557  -1.448073  0.158893
H  1.376176  0.232826  0.726864
H  -1.639526  -1.510212  0.831274
N  2.766424  -0.040240  0.051743
H  3.459074  0.684787  0.209059
H  2.524702  -0.043684  -0.937116
H  3.186445  -0.935883  0.278851
