11
-756.702646772
S  0.615785  0.117000  0.091118
O  -0.061451  0.145500  1.368788
O  1.823175  0.863769  -0.159475
O  0.946572  -1.448177  -0.157928
O  -0.406159  0.436746  -1.049899
H  1.639559  -1.510763  -0.830247
H  -1.376185  0.232344  -0.727182
N  -2.766236  -0.040258  -0.051741
H  -3.458213  0.685742  -0.207538
H  -2.523682  -0.045085  0.936929
H  -3.187489  -0.935142  -0.279556
