11
-756.702646635
S  0.615591  -0.117074  -0.091070
O  -0.062191  -0.145574  -1.368476
O  1.822965  -0.863976  0.159071
O  0.946713  1.448195  0.157382
O  -0.405911  -0.436271  1.050429
H  1.638674  1.510966  0.830743
H  -1.376353  -0.232544  0.727797
N  -2.765548  0.040134  0.051795
H  -3.185159  0.936366  0.277271
H  -2.521184  0.042627  -0.936459
H  -3.459204  -0.684153  0.207961
