11
-756.702646704
S  0.615987  0.116924  0.091173
O  -0.061027  0.145394  1.368967
O  1.823771  0.863162  -0.159589
O  0.945597  -1.448280  -0.158444
O  -0.406089  0.437628  -1.049451
H  1.638657  -1.511563  -0.830583
H  -1.376051  0.233201  -0.726753
N  -2.766497  -0.040109  -0.051743
H  -3.186225  -0.935757  -0.279202
H  -2.525302  -0.043756  0.937347
H  -3.459397  0.684616  -0.209250
