11
-756.702646757
S  0.615830  -0.116946  -0.091222
O  -0.061278  -0.144243  -1.368943
O  1.823143  -0.863993  0.158853
O  0.946802  1.447979  0.159317
O  -0.406323  -0.437595  1.049452
H  1.640936  1.509752  0.830514
H  -1.376212  -0.232938  0.726721
N  -2.766559  0.040293  0.051738
H  -3.186536  0.935971  0.278828
H  -3.459299  -0.684658  0.209052
H  -2.525015  0.043791  -0.937172
