11
-756.702646613
S  0.615700  -0.116863  -0.091251
O  -0.061849  -0.142345  -1.368841
O  1.822025  -0.865894  0.157900
O  0.949059  1.447304  0.160007
O  -0.406542  -0.436729  1.049360
H  1.641789  1.507743  0.832809
H  -1.376643  -0.233007  0.726392
N  -2.766764  0.040271  0.051754
H  -3.457224  -0.687573  0.205559
H  -3.189418  0.933736  0.282381
H  -2.523902  0.048328  -0.936799
