11
-756.702646777
S  0.615756  -0.116943  -0.091174
O  -0.061523  -0.144693  -1.368835
O  1.823149  -0.863918  0.158914
O  0.946675  1.448060  0.158744
O  -0.406116  -0.437300  1.049723
H  1.640096  1.510103  0.830669
H  -1.376110  -0.232716  0.727119
N  -2.766279  0.040250  0.051753
H  -3.459092  -0.684653  0.208968
H  -2.524207  0.043408  -0.937034
H  -3.186309  0.936015  0.278405
