11
-756.702646744
S  -0.615958  -0.117031  0.091102
O  0.060798  -0.146866  1.368961
O  -1.824097  -0.862276  -0.160356
O  -0.944757  1.448714  -0.157189
O  0.405959  -0.437404  -1.049800
H  -1.636126  1.512533  -0.831070
H  1.375882  -0.232697  -0.727152
N  2.766127  0.040177  -0.051663
H  3.458967  -0.684368  -0.210358
H  2.524830  0.042117  0.937301
H  3.185672  0.936329  -0.277650
