11
-756.702646735
S  0.615801  -0.117006  -0.091201
O  -0.061069  -0.144928  -1.369059
O  1.823578  -0.863285  0.159404
O  0.945980  1.448263  0.158855
O  -0.406250  -0.437832  1.049256
H  1.639179  1.510550  0.830992
H  -1.376276  -0.232819  0.726953
N  -2.766255  0.040279  0.051829
H  -3.458733  -0.684979  0.208830
H  -2.524476  0.043910  -0.937026
H  -3.186633  0.935731  0.279016
