11
-756.702646776
S  0.615828  0.117035  0.091106
O  -0.061380  0.146443  1.368742
O  1.823875  0.862616  -0.159749
O  0.945198  -1.448550  -0.157569
O  -0.405876  0.437369  -1.049995
H  1.638505  -1.511814  -0.829497
H  -1.375873  0.232998  -0.727442
N  -2.765986  -0.040243  -0.051743
H  -3.185869  -0.936080  -0.278355
H  -3.459063  0.684468  -0.208605
H  -2.523585  -0.043460  0.936972
