11
-756.702646747
S  -0.616069  -0.117145  0.091011
O  0.060277  -0.148983  1.368983
O  -1.824916  -0.860764  -0.161571
O  -0.943073  1.449295  -0.155954
O  0.405825  -0.437481  -1.050003
H  -1.635430  1.514411  -0.828678
H  1.375619  -0.232924  -0.727248
N  2.766067  0.040226  -0.051668
H  3.184168  0.937424  -0.276204
H  3.460221  -0.682854  -0.211422
H  2.525152  0.040146  0.937408
