11
-756.702646779
S  -0.615790  0.116963  -0.091170
O  0.061467  0.144823  -1.368838
O  -1.823161  0.863891  0.159088
O  -0.946690  -1.448042  0.158605
O  0.406189  0.437161  1.049693
H  -1.640021  -1.510246  0.830606
H  1.376190  0.232650  0.727055
N  2.766327  -0.040252  0.051754
H  3.186588  -0.935821  0.278707
H  2.524213  -0.043785  -0.937021
H  3.458937  0.684888  0.208726
