11
-756.702646393
S  -0.615889  -0.116971  0.091127
O  0.061259  -0.146057  1.368824
O  -1.823691  -0.863062  -0.159728
O  -0.945752  1.448377  -0.157509
O  0.405932  -0.437051  -1.049941
H  -1.636868  1.511801  -0.831676
H  1.376224  -0.235090  -0.726757
N  2.766134  0.040077  -0.051715
H  2.525418  0.041960  0.937409
H  3.461078  -0.682549  -0.210108
H  3.183446  0.937205  -0.278071
