11
-756.702646668
S  0.615768  -0.116895  -0.091226
O  1.823298  -0.863679  0.158702
O  -0.061703  -0.144490  -1.368802
O  -0.405986  -0.437757  1.049565
O  0.946290  1.448076  0.159045
H  -1.375962  -0.233253  0.727101
H  1.639557  1.510082  0.831149
N  -2.766103  0.040315  0.051783
H  -3.188280  0.934431  0.280760
H  -2.523090  0.046518  -0.936743
H  -3.456991  -0.686871  0.206788
