11
-756.702646747
S  0.615886  -0.116977  -0.091128
O  -0.060973  -0.146316  -1.368976
O  1.824224  -0.862078  0.159859
O  0.944495  1.448627  0.157995
O  -0.405916  -0.438189  1.049567
H  1.637182  1.512073  0.830560
H  -1.375813  -0.233408  0.727081
N  -2.765997  0.040257  0.051749
H  -2.523709  0.043233  -0.936974
H  -3.185662  0.936149  0.278456
H  -3.458840  -0.684556  0.209118
