11
-756.702646761
S  -0.615786  -0.116971  0.091179
O  0.061484  -0.144583  1.368821
O  -1.823061  -0.864052  -0.158985
O  -0.946904  1.448008  -0.158717
O  0.406259  -0.437168  -1.049629
H  -1.639838  1.509999  -0.831152
H  1.376307  -0.232604  -0.726846
N  2.766293  0.040247  -0.051731
H  3.187129  0.935276  -0.279757
H  2.524323  0.045049  0.937069
H  3.458372  -0.685551  -0.207988
