11
-756.702646732
S  -0.615859  -0.117046  0.091027
O  0.061055  -0.147526  1.368830
O  -1.824382  -0.861688  -0.160400
O  -0.943928  1.448913  -0.156756
O  0.405788  -0.437585  -1.050030
H  -1.635488  1.513316  -0.830381
H  1.375879  -0.232946  -0.727487
N  2.765523  0.040171  -0.051689
H  3.185003  0.936428  -0.277286
H  3.458652  -0.684253  -0.209537
H  2.522778  0.042083  0.936930
