11
-756.702646769
S  0.615803  0.116968  0.091187
O  -0.061463  0.145358  1.368806
O  1.823516  0.863303  -0.159210
O  0.945926  -1.448286  -0.158294
O  -0.405949  0.437474  -1.049855
H  1.638755  -1.510930  -0.830773
H  -1.375848  0.232930  -0.727359
N  -2.766127  -0.040188  -0.051742
H  -2.524035  -0.043194  0.937046
H  -3.459298  0.684384  -0.208972
H  -3.185776  -0.936152  -0.278307
