11
-756.702646611
S  0.615671  -0.116981  -0.091112
O  -0.061372  -0.144981  -1.368958
O  1.823169  -0.863788  0.159389
O  0.946791  1.447910  0.158948
O  -0.406501  -0.437132  1.049326
H  1.643414  1.509565  0.827585
H  -1.376739  -0.233312  0.726465
N  -2.766323  0.040477  0.051821
H  -3.459241  -0.684264  0.209228
H  -3.185803  0.936299  0.279211
H  -2.524811  0.043999  -0.937090
