11
-756.702646680
S  0.615624  -0.116954  -0.091151
O  -0.061828  -0.144099  -1.368782
O  1.822637  -0.864678  0.158747
O  0.947775  1.447691  0.159171
O  -0.406459  -0.436785  1.049475
H  1.643192  1.508799  0.829124
H  -1.376664  -0.232920  0.726523
N  -2.766299  0.040439  0.051817
H  -2.524210  0.044741  -0.936954
H  -3.458491  -0.685158  0.208466
H  -3.186716  0.935696  0.279649
