11
-756.702646776
S  -0.615814  -0.116952  0.091195
O  0.061308  -0.144409  1.368932
O  -1.823010  -0.864176  -0.159044
O  -0.947071  1.447947  -0.158941
O  0.406351  -0.437186  -1.049493
H  -1.640387  1.509750  -0.830993
H  1.376337  -0.232607  -0.726713
N  2.766535  0.040260  -0.051745
H  2.525191  0.042429  0.937232
H  3.185828  0.936499  -0.277920
H  3.459691  -0.684061  -0.210145
