11
-756.702646749
S  0.615602  -0.117016  -0.091100
O  1.822343  -0.865115  0.158779
O  -0.062021  -0.144321  -1.368681
O  -0.406375  -0.435992  1.049960
O  0.948153  1.447744  0.158447
H  -1.376604  -0.231625  0.727089
H  1.642032  1.509191  0.829941
N  -2.766117  0.040285  0.051753
H  -3.458143  -0.685426  0.208527
H  -3.187242  0.935476  0.278679
H  -2.523648  0.044108  -0.936948
