11
-756.702646756
S  0.615874  -0.116971  -0.091175
O  1.823024  -0.864207  0.159226
O  -0.061309  -0.144595  -1.368959
O  -0.406355  -0.436946  1.049519
O  0.947129  1.447959  0.158731
H  -1.376257  -0.232337  0.726466
H  1.640503  1.509897  0.830721
N  -2.766707  0.040251  0.051785
H  -3.186465  0.936226  0.278147
H  -2.525309  0.042841  -0.937173
H  -3.459412  -0.684521  0.210006
