11
-756.702646726
S  0.615577  -0.116923  -0.091211
O  1.822729  -0.864554  0.158047
O  -0.062347  -0.143923  -1.368547
O  -0.405963  -0.437111  1.050061
O  0.947330  1.447821  0.158959
H  -1.376138  -0.232655  0.727552
H  1.640155  1.509490  0.831537
N  -2.765720  0.040201  0.051789
H  -3.458128  -0.685474  0.207228
H  -3.186700  0.935352  0.279102
H  -2.522392  0.044788  -0.936720
