11
-756.702646753
S  0.615791  -0.117019  -0.091130
O  -0.061265  -0.144740  -1.368887
O  1.823039  -0.864101  0.159205
O  0.947034  1.447997  0.158713
O  -0.406433  -0.436938  1.049601
H  1.641274  1.509907  0.829785
H  -1.376541  -0.232572  0.726635
N  -2.766493  0.040294  0.051691
H  -2.525479  0.042650  -0.937353
H  -3.459707  -0.683985  0.210060
H  -3.185760  0.936500  0.278054
