11
-756.702646778
S  -0.615788  -0.116966  0.091179
O  -1.823126  -0.863959  -0.159058
O  0.061429  -0.144686  1.368864
O  0.406230  -0.437205  -1.049627
O  -0.946774  1.448031  -0.158725
H  1.376214  -0.232611  -0.726998
H  -1.640138  1.510084  -0.830706
N  2.766367  0.040255  -0.051758
H  2.524293  0.043969  0.937026
H  3.186680  0.935757  -0.278884
H  3.458914  -0.684968  -0.208626
