11
-756.702646676
S  0.615731  -0.117032  -0.091090
O  -0.061279  -0.144683  -1.368919
O  1.822943  -0.864259  0.159297
O  0.947324  1.447871  0.158907
O  -0.406659  -0.436776  1.049425
H  1.643270  1.509446  0.828234
H  -1.376858  -0.232603  0.726263
N  -2.766511  0.040408  0.051722
H  -2.525707  0.043592  -0.937372
H  -3.459390  -0.684271  0.209694
H  -3.186064  0.936269  0.278893
