11
-756.702645869
S  0.616022  -0.117260  -0.090861
O  1.824876  -0.860882  0.161917
O  -0.061098  -0.150622  -1.368435
O  -0.405425  -0.435560  1.051324
O  0.943507  1.449347  0.153635
H  -1.375811  -0.235472  0.727410
H  1.633627  1.515871  0.828498
N  -2.765817  0.039874  0.051623
H  -3.466542  -0.675714  0.216256
H  -3.176060  0.942166  0.270360
H  -2.525722  0.031928  -0.937638
