11
-756.702646751
S  0.615712  -0.116922  -0.091195
O  -0.061724  -0.144222  -1.368801
O  1.823003  -0.864137  0.158649
O  0.946922  1.447920  0.159172
O  -0.406212  -0.437437  1.049544
H  1.640969  1.509566  0.830489
H  -1.376240  -0.232861  0.726924
N  -2.766179  0.040310  0.051790
H  -2.523599  0.044763  -0.936861
H  -3.458369  -0.685376  0.208025
H  -3.186813  0.935497  0.279503
