11
-756.702646656
S  0.615613  -0.116924  -0.091198
O  1.822374  -0.865143  0.158326
O  -0.061855  -0.143274  -1.368824
O  -0.406545  -0.436906  1.049381
O  0.948294  1.447509  0.159695
H  -1.376639  -0.232952  0.726377
H  1.643030  1.508215  0.830395
N  -2.766398  0.040426  0.051788
H  -3.188513  0.934310  0.281795
H  -3.457258  -0.686894  0.206297
H  -2.523788  0.047626  -0.936833
