11
-756.702646736
S  0.615884  0.116994  0.091077
O  1.824117  0.862238  -0.160136
O  -0.060930  0.146695  1.368942
O  -0.405959  0.437683  -1.049703
O  0.944751  -1.448620  -0.157561
H  -1.375936  0.233031  -0.727204
H  1.637730  -1.512176  -0.829790
N  -2.766141  -0.040251  -0.051757
H  -3.187447  -0.934898  -0.280381
H  -2.523290  -0.046054  0.936810
H  -3.458056  0.685984  -0.206692
