11
-756.702646763
S  -0.615777  0.116929  -0.091247
O  0.061471  0.143828  -1.368924
O  -1.823051  0.864172  0.158555
O  -0.946963  -1.447905  0.159508
O  0.406237  0.437702  1.049424
H  -1.640393  -1.509507  0.831461
H  1.376237  0.232920  0.726924
N  2.766419  -0.040244  0.051784
H  3.187017  -0.935450  0.279553
H  2.524286  -0.044783  -0.936982
H  3.458793  0.685288  0.208011
