11
-756.702646696
S  -0.615882  -0.116917  0.091279
O  -1.822652  -0.864891  -0.158661
O  0.061285  -0.143398  1.368968
O  0.406519  -0.437169  -1.049286
O  -0.948028  1.447622  -0.159667
H  1.376248  -0.232689  -0.726258
H  -1.641742  1.508702  -0.831374
N  2.767120  0.040210  -0.051762
H  2.526190  0.043629  0.937294
H  3.460522  -0.684039  -0.209376
H  3.186071  0.936282  -0.279242
