11
-756.702646605
S  -0.615601  -0.116949  0.091213
O  -1.821540  -0.866620  -0.157841
O  0.062089  -0.142245  1.368688
O  0.406815  -0.435904  -1.049543
O  -0.950056  1.447112  -0.160016
H  1.377006  -0.231951  -0.726326
H  -1.645381  1.506885  -0.830155
N  2.766753  0.040375  -0.051639
H  3.457693  -0.686602  -0.207586
H  2.526061  0.047012  0.937448
H  3.188509  0.934480  -0.281615
