11
-756.702646692
S  0.615750  -0.116944  -0.091191
O  -0.061902  -0.144513  -1.368669
O  1.823130  -0.863955  0.158670
O  0.946602  1.448031  0.158698
O  -0.406007  -0.437276  1.049774
H  1.639344  1.510063  0.831335
H  -1.376038  -0.232871  0.727226
N  -2.766038  0.040209  0.051790
H  -2.522435  0.045300  -0.936613
H  -3.457764  -0.686115  0.207050
H  -3.187413  0.934971  0.279735
