11
-756.702646783
S  0.615807  -0.116999  -0.091115
O  -0.061317  -0.145403  -1.368854
O  1.823133  -0.863896  0.159563
O  0.946709  1.448123  0.157964
O  -0.406262  -0.436618  1.049823
H  1.639552  1.510679  0.830427
H  -1.376243  -0.232304  0.726961
N  -2.766333  0.040220  0.051730
H  -3.458974  -0.684799  0.209170
H  -3.186532  0.935923  0.278324
H  -2.524488  0.043293  -0.937121
