11
-756.702646364
S  0.615223  -0.116954  -0.091175
O  -0.062842  -0.140596  -1.368600
O  1.819908  -0.869059  0.157216
O  0.953166  1.446235  0.160432
O  -0.407337  -0.434156  1.049510
H  1.649393  1.504078  0.829828
H  -1.377955  -0.230371  0.726257
N  -2.766641  0.040365  0.051766
H  -3.459551  -0.684153  0.210367
H  -3.185847  0.936416  0.278945
H  -2.526278  0.043345  -0.937430
