11
-756.702646675
S  0.615629  -0.117041  -0.091054
O  1.822810  -0.864185  0.159458
O  -0.061953  -0.145670  -1.368630
O  -0.406161  -0.436045  1.050036
O  0.947362  1.448030  0.157577
H  -1.376194  -0.231633  0.727532
H  1.641553  1.509887  0.828766
N  -2.766152  0.040453  0.051818
H  -3.189345  0.933887  0.281470
H  -3.456684  -0.687385  0.205475
H  -2.522802  0.047687  -0.936641
