21
-3140.32959
S    -13.273514903    -9.976559613    -25.676170058
O    -14.554365803    -10.327454081    -26.236864703
O    -12.603710748    -8.748505344    -25.952162693
O    -13.364598486    -10.113166662    -24.050306642
O    -12.290036711    -11.238852864    -26.002038910
H    -12.843151350    -9.484130505    -23.522634005
H    -12.708150676    -12.036618689    -26.374739936
C    -17.981392010    -8.956822322    -26.613012746
C    -18.851700045    -7.776157975    -26.267009744
C    -18.143160724    -6.759371370    -25.374333848
C    -17.055562062    -6.072475037    -26.144663408
O    -18.278226685    -9.874040096    -27.332562673
O    -16.795922744    -8.867873311    -25.993395225
O    -17.034298669    -5.778109768    -27.310600460
O    -16.024503492    -5.742379048    -25.323634018
H    -19.185804421    -7.295305366    -27.218864622
H    -19.778350216    -8.147880852    -25.778660693
H    -17.717318918    -7.258891691    -24.471412782
H    -18.857019175    -5.999216130    -24.990877730
H    -16.114044916    -9.572329387    -26.202581025
H    -15.252318586    -5.347360882    -25.798910838
