21
-3140.34375
S    -13.337232258    -10.631942345    -27.771933374
O    -12.365185103    -11.494430649    -28.359432251
O    -14.745478458    -10.687179352    -28.083822002
O    -13.259651104    -10.689996480    -26.142313097
O    -12.824403951    -9.098798908    -28.014367030
H    -14.058241299    -10.367777873    -25.671159865
H    -11.990987289    -8.969304791    -28.494536451
C    -17.626345355    -9.710231850    -25.919916323
C    -18.011204486    -9.197048961    -24.561812964
C    -16.863233453    -8.572476722    -23.776945713
C    -16.595146916    -7.176021779    -24.247110648
O    -18.382393490    -10.045829041    -26.791494391
O    -16.288249823    -9.794151974    -26.078724779
O    -17.302524630    -6.438432007    -24.878405889
O    -15.368093159    -6.772944444    -23.821678068
H    -18.841534245    -8.456837616    -24.694461087
H    -18.461307542    -10.038607748    -23.988092163
H    -15.936646103    -9.187710257    -23.856492792
H    -17.097464941    -8.547285818    -22.688402282
H    -15.993988837    -10.122092999    -26.990424263
H    -15.134761357    -5.852253659    -24.096838965
