21
-3140.31396
S    6.459228728    -8.677716299    18.377805953
O    7.590891764    -9.459083124    17.970211111
O    5.389341812    -8.342847079    17.491495367
O    5.836389081    -9.312469227    19.739665989
O    7.083502239    -7.290781391    19.013898001
H    4.956475106    -8.980681070    20.038965267
H    8.047135209    -7.262593033    19.108816097
C    2.972047794    -8.366933017    21.738763140
C    1.595930645    -7.861753421    22.025384297
C    1.175898728    -7.952842072    23.486399373
C    1.650569968    -6.756096052    24.252911038
O    3.486064911    -8.395079115    20.644628819
O    3.623359102    -8.830115079    22.824967325
O    2.277665414    -5.808414131    23.862674432
O    1.237321458    -6.844580391    25.543097441
H    1.540021845    -6.799048989    21.665424853
H    0.877098651    -8.414668471    21.374372305
H    1.559589935    -8.883754688    23.969924036
H    0.067642663    -8.031912898    23.575296531
H    4.549754449    -9.141575957    22.631095911
H    1.521245358    -6.081468043    26.105720819
