21
-3140.50576
S    -13.456288137    -9.888591173    -1.220008232
O    -13.820137458    -11.124756575    -1.907345718
O    -12.922265577    -8.780407747    -1.936010920
O    -14.759828095    -9.480485185    -0.368334534
O    -12.420920829    -10.327597908    -0.035956187
H    -15.645040518    -9.791122745    -0.743652743
H    -12.447741637    -11.260749800    0.239009513
C    -17.134776179    -11.132705555    -2.518303414
C    -18.463748646    -11.387989970    -3.165915529
C    -18.545724611    -12.720495862    -3.901717364
C    -18.928403166    -13.823523157    -2.965471100
O    -16.966930225    -10.325540253    -1.622936176
O    -16.136396721    -11.832710938    -3.043172284
O    -19.113682548    -13.780331259    -1.778949687
O    -19.083185366    -14.983260572    -3.656461685
H    -19.256593958    -11.321952492    -2.377358905
H    -18.680587902    -10.544376253    -3.860923548
H    -17.576399460    -12.973431411    -4.400357861
H    -19.279619393    -12.669402003    -4.738004305
H    -15.209437586    -11.643271232    -2.633439753
H    -19.343669611    -15.751170243    -3.089571287
