21
-3140.28487
S    -13.950507245    -4.551874045    -7.944603349
O    -13.513686682    -4.128748286    -9.243426071
O    -14.908999832    -3.824321951    -7.172393465
O    -14.407057880    -6.110094373    -8.022610184
O    -12.576410203    -4.731328868    -7.048988762
H    -14.900333311    -6.482503921    -7.260632237
H    -11.743050790    -4.685893375    -7.541203339
C    -13.671138744    -9.420649581    -6.978840789
C    -15.144391268    -9.686721501    -7.058538759
C    -15.866412745    -9.551705272    -5.723697945
C    -16.097876579    -8.119327849    -5.364562924
O    -12.854687456    -9.582424818    -7.844402526
O    -13.310019370    -8.972142680    -5.748313527
O    -15.802157520    -7.112776284    -5.959252560
O    -16.782015776    -8.030775287    -4.200479266
H    -15.580940106    -8.995430857    -7.823528477
H    -15.295022282    -10.708534207    -7.478758006
H    -15.285309464    -10.044912050    -4.903594346
H    -16.840349664    -10.093732945    -5.741136176
H    -12.356456296    -8.709386394    -5.689533871
H    -16.937796630    -7.094650974    -3.903490737
