21
-3140.30063
S    2.571088192    -7.575171950    19.466465847
O    2.684134745    -7.619736366    18.046712323
O    1.964917480    -6.478360447    20.180477178
O    1.829864993    -8.921715434    20.019666060
O    4.057914437    -7.827931775    20.091670306
H    1.428704404    -8.866016476    20.905310956
H    4.818070130    -7.802556089    19.486089781
C    4.938900322    -2.252431433    24.572373231
C    5.115673492    -3.735312493    24.480242315
C    3.829303853    -4.518875598    24.242760609
C    3.605844029    -4.772597315    22.778020905
O    5.805439096    -1.427574624    24.703725435
O    3.635783865    -1.875070161    24.520586134
O    4.349576314    -4.514221828    21.865910266
O    2.425559925    -5.389254861    22.595930996
H    5.854119787    -3.941728070    23.661116359
H    5.618459022    -4.084419050    25.411098665
H    2.939368534    -3.996138461    24.668455028
H    3.853725744    -5.495240249    24.774088819
H    3.511542796    -0.893646448    24.563637679
H    2.236405579    -5.676694667    21.651550012
