21
-3140.30071
S    7.212321631    -8.785235114    17.353973770
O    7.868173991    -9.420264574    16.257396659
O    5.880830783    -9.093653131    17.787187569
O    8.150267506    -8.878915071    18.692541814
O    7.296436850    -7.170034027    17.083857870
H    7.684878252    -8.953048297    19.545961049
H    7.931028497    -6.867595315    16.413761119
C    3.994624706    -5.459411533    21.229021744
C    3.969328048    -6.503001605    20.158345172
C    4.814581276    -7.732571564    20.462786881
C    4.202628809    -8.578404361    21.530993918
O    3.310609315    -4.473062800    21.302638682
O    4.942741640    -5.713690878    22.169448787
O    3.079953436    -8.586162248    21.957384233
O    5.130296922    -9.461429143    21.999227047
H    2.906122621    -6.797165782    19.972809173
H    4.310650671    -6.036139888    19.202804773
H    5.850421607    -7.442210038    20.749777108
H    4.911407594    -8.361181109    19.536665760
H    4.957575434    -5.045082266    22.899975086
H    4.778916701    -10.078709001    22.684837238
