21
-3140.38753
S    3.109840536    1.291864142    25.766748143
O    3.540322586    1.871832083    24.535933867
O    2.154568703    0.225293767    25.824033943
O    4.424011078    0.779297812    26.617806393
O    2.647058655    2.474975352    26.787348124
H    4.375286710    -0.102320992    27.014079100
H    3.335887143    2.948463817    27.331884100
C    5.951238729    6.563073903    29.094125022
C    4.986574111    6.075869569    30.133126400
C    3.531736994    6.094681942    29.676064743
C    3.264579820    4.966321650    28.733524090
O    7.147271525    6.452314344    29.100047036
O    5.316331424    7.209941661    28.082208723
O    4.028328224    4.078105226    28.417260848
O    2.008760545    5.009862195    28.252402203
H    5.290722649    5.039828652    30.428512272
H    5.114976827    6.691150079    31.052923634
H    3.274533798    7.066089301    29.183615596
H    2.838664499    6.029407877    30.545605434
H    5.928931085    7.525911990    27.370753271
H    1.785499529    4.265652870    27.616627068
