21
-3140.30273
S    -6.458046519    19.212183974    24.031604740
O    -5.072937490    19.196385771    24.391094428
O    -7.024099204    20.058530348    23.033937606
O    -6.909562428    17.664966647    23.708332783
O    -7.281948539    19.405355656    25.438990191
H    -7.516189543    17.492786241    22.953301060
H    -6.781637276    19.241259908    26.254446635
C    -6.066498389    15.508955039    21.550042286
C    -6.490840501    14.293659665    20.771197285
C    -7.726585398    13.656627690    21.402153053
C    -8.808796865    14.671869733    21.607874673
O    -5.752794797    16.580939478    21.105718172
O    -6.069860238    15.249052670    22.875972562
O    -8.715148413    15.848670093    21.847507848
O    -10.024535753    14.083339688    21.498809207
H    -6.681546237    14.584054894    19.713863997
H    -5.652682900    13.563255732    20.736840573
H    -7.467724336    13.215157417    22.397397825
H    -8.093892377    12.804872284    20.786930127
H    -6.048644226    16.080327746    23.434810051
H    -10.786242908    14.697571018    21.649998304
