21
-3140.29833
S    7.350374513    -15.585993146    14.831572150
O    6.610092988    -16.696723698    14.308913491
O    6.768723249    -14.291561076    15.015961878
O    8.084727542    -16.010116076    16.221074662
O    8.689352942    -15.460517851    13.885329119
H    7.656689788    -15.744599852    17.072993368
H    8.872772263    -16.227414082    13.318237899
C    8.826158878    -12.446964480    17.646380097
C    9.423210902    -13.657513479    18.302156285
C    8.747774833    -14.000373214    19.625274400
C    7.373171255    -14.558702330    19.419122359
O    9.379084428    -11.642157863    16.948490132
O    7.511053750    -12.335428540    17.958274125
O    6.966004815    -15.292574872    18.548372134
O    6.559540125    -14.211366093    20.439729706
H    9.369704417    -14.516167923    17.584012863
H    10.513749024    -13.486690234    18.452245621
H    8.699936267    -13.102916722    20.288087531
H    9.351986992    -14.747505355    20.190697108
H    7.033747996    -11.642751759    17.433191227
H    5.630107999    -14.550040196    20.343824315
