21
-3140.38372
S    -14.856001661    -8.386546150    -0.522892333
O    -14.222264408    -9.505651506    -1.182610880
O    -15.325830377    -7.256262906    -1.253707155
O    -16.028403926    -9.035430648    0.394584284
O    -13.841081859    -7.892771710    0.664404526
H    -16.701823501    -9.594207119    -0.081736952
H    -13.295388715    -8.581484568    1.076206259
C    -16.360064617    -13.271668238    0.268120381
C    -15.417105803    -12.402876466    -0.500529540
C    -15.871232269    -12.086998804    -1.921431793
C    -17.188796632    -11.381562048    -1.933886592
O    -16.192934625    -13.759558561    1.353801849
O    -17.517566976    -13.476927792    -0.413316701
O    -17.602362125    -10.524392093    -1.181156944
O    -17.942739885    -11.771181316    -2.982191411
H    -15.246706058    -11.458484568    0.077167662
H    -14.412429021    -12.888568714    -0.523126174
H    -15.919224388    -13.013030641    -2.538409503
H    -15.106463698    -11.428069908    -2.417365299
H    -18.181111610    -14.019355686    0.081801764
H    -18.824690917    -11.316972093    -3.031873024
