21
-3140.30350
S    2.588586851    7.385146384    29.772746047
O    3.093920667    6.066497002    29.572986322
O    2.771540228    8.452524858    28.823540357
O    0.985479045    7.334729886    30.074344078
O    3.131421394    7.881241424    31.232433633
H    0.464786498    8.109251666    29.787144858
H    3.569677643    7.216259571    31.790995792
C    5.641949538    13.045472573    30.877524064
C    5.895579211    13.377158679    29.438888884
C    5.942183738    12.151437006    28.532288347
C    4.599389095    11.467939661    28.510636747
O    5.516887726    13.811108310    31.797033603
O    5.568133214    11.705196361    31.079394581
O    3.525243185    11.981442025    28.694209715
O    4.749641628    10.167562188    28.214988900
H    5.088673908    14.075763102    29.099389780
H    6.843555514    13.955505432    29.363881211
H    6.721711142    11.431217058    28.871766981
H    6.225410880    12.432904588    27.495964873
H    5.314459966    11.454311052    32.001003234
H    3.932564759    9.601025850    28.346446180
