21
-3140.31734
S    5.765707374    -15.292329477    12.661411203
O    5.272682595    -16.616550499    12.402861749
O    5.578798107    -14.219021586    11.738273784
O    5.287310840    -14.816108503    14.139582929
O    7.372095187    -15.497093923    12.975592701
H    5.781326087    -15.160228256    14.920944521
H    7.704774873    -16.406083620    12.942208845
C    5.959066067    -15.796919324    17.372129715
C    4.702382919    -15.061194697    17.714112822
C    4.643974377    -14.638331679    19.177970507
C    5.662832187    -13.576329660    19.459201083
O    6.477704248    -15.902428343    16.283429750
O    6.504682712    -16.415185223    18.440567626
O    6.426292147    -13.050632039    18.694169461
O    5.633250021    -13.234263618    20.771677182
H    4.614665043    -14.167747832    17.041382810
H    3.826564684    -15.702135122    17.456600037
H    4.815054858    -15.508718503    19.858342990
H    3.628742857    -14.266639914    19.445733910
H    7.354727760    -16.888791970    18.235495205
H    6.301655321    -12.544265757    21.015317594
