21
-3140.46854
S    1.586254612    6.380545299    28.949469547
O    1.924988864    5.528171816    30.058347028
O    1.109145344    5.895764643    27.691628189
O    0.451188210    7.433598373    29.517309604
O    2.809074459    7.411595308    28.728248831
H    -0.123787198    7.856051690    28.864530909
H    3.413756437    7.561581450    29.512486787
C    3.933063101    7.323275006    32.042554975
C    2.529852871    7.094256221    32.493204879
C    2.318930101    7.342814437    33.980488375
C    2.409415341    8.805012603    34.287588071
O    4.322805698    7.616600413    30.932251910
O    4.832155319    7.145395329    33.035115252
O    2.627551089    9.721721092    33.541293254
O    2.187691330    9.018169482    35.610717990
H    1.836857677    7.734138418    31.889421248
H    2.237890838    6.040324281    32.223930280
H    3.059094119    6.779752179    34.598356554
H    1.327333576    6.951693436    34.305708643
H    5.772894978    7.286275576    32.748907322
H    2.237312569    9.970906671    35.872904575
