21
-3140.28000
S    -16.419471687    -8.084925010    0.643734896
O    -15.007883349    -8.101107041    0.859070546
O    -17.124397661    -9.028475444    -0.162122749
O    -17.176847657    -8.063686528    2.112709051
O    -16.817498175    -6.570902160    0.162633510
H    -18.126462951    -8.266069227    2.111474661
H    -16.154496841    -5.873491085    0.302888081
C    -14.966256025    -8.780427535    5.293600079
C    -13.862913616    -9.702691878    5.726713574
C    -13.383825240    -10.620371525    4.605012516
C    -12.584546793    -9.846535579    3.598526341
O    -15.242842085    -7.706022123    5.756899068
O    -15.694931968    -9.326268162    4.293785632
O    -11.950602500    -8.838145875    3.762747303
O    -12.618263494    -10.473116864    2.396917767
H    -13.015957822    -9.082137746    6.112690012
H    -14.218151165    -10.301941291    6.594086814
H    -14.246861901    -11.122246739    4.102055190
H    -12.760612682    -11.448186409    5.007824745
H    -16.339660668    -8.703785908    3.863505135
H    -12.216624421    -9.943547048    1.661950863
