21
-3140.31643
S    -3.236400419    0.837978742    -2.390293156
O    -1.848577605    0.969468412    -2.703513014
O    -4.285095653    1.503956739    -3.124490953
O    -3.682813967    -0.728971831    -2.381998683
O    -3.377440702    1.202229511    -0.800229197
H    -4.561081958    -0.892072279    -2.819706155
H    -2.546082787    1.291745963    -0.302594482
C    -6.097236116    -1.071385967    -5.029711079
C    -6.132831592    -2.567606751    -4.937403403
C    -7.102060563    -3.075696131    -3.874617688
C    -8.460498057    -3.330564687    -4.451805508
O    -6.131569491    -0.380930855    -6.006486975
O    -5.957671165    -0.514415857    -3.790080100
O    -8.864791703    -3.138257923    -5.565906518
O    -9.264665330    -3.865098338    -3.495462165
H    -6.398252632    -2.980023389    -5.943811094
H    -5.102672094    -2.937753572    -4.730588650
H    -7.189609762    -2.359824035    -3.020639134
H    -6.718319242    -4.010286088    -3.404532189
H    -5.823694969    0.488049588    -3.794103634
H    -10.187813577    -4.042929107    -3.801904568
