21
-3140.31535
S    -15.815386896    -8.066201731    -5.854119109
O    -14.859284142    -9.117075243    -6.043726463
O    -16.357253330    -7.316406012    -6.943970425
O    -17.029642513    -8.720435209    -4.959447609
O    -15.267430787    -7.025742692    -4.726193499
H    -17.605790261    -8.166090395    -4.405418467
H    -15.045575980    -7.362646585    -3.837180185
C    -15.638551468    -8.590428903    -1.533548517
C    -16.608129425    -9.639918483    -1.976669735
C    -17.988031915    -9.450135722    -1.361396648
C    -18.737093815    -8.303518652    -1.965343415
O    -14.913730901    -7.896625274    -2.205043596
O    -15.603026802    -8.498607058    -0.185103450
O    -18.530379574    -7.686410178    -2.982293788
O    -19.792780250    -7.986701504    -1.182306816
H    -16.665056095    -9.664918598    -3.098403464
H    -16.200878512    -10.642873639    -1.702180371
H    -17.916697499    -9.317489063    -0.252282688
H    -18.597312311    -10.378271524    -1.485706355
H    -14.965790641    -7.817106302    0.155979421
H    -20.353723135    -7.247836346    -1.537798028
