21
-3140.40420
S    -13.324106037    -5.386971055    -7.755395658
O    -12.269973886    -5.714289892    -8.667393486
O    -14.697602102    -5.743579948    -7.994810919
O    -12.954030811    -5.881360146    -6.262081803
O    -13.245744994    -3.756863015    -7.549457520
H    -13.701781536    -6.020460725    -5.629150481
H    -12.469776215    -3.312740347    -7.924952622
C    -16.427643481    -9.007419924    -5.885923995
C    -16.672044657    -7.680625206    -6.527283184
C    -17.221425129    -6.626541785    -5.574333604
C    -16.231680670    -6.263005168    -4.515119260
O    -15.637245926    -9.854015650    -6.205671167
O    -17.257771996    -9.206190485    -4.826302372
O    -15.028594997    -6.158844867    -4.575806424
O    -16.860058547    -6.005708405    -3.346760946
H    -15.724787706    -7.322237565    -7.015399661
H    -17.369548809    -7.819204199    -7.387175618
H    -18.176184951    -6.974790412    -5.108623429
H    -17.486934312    -5.702590999    -6.144677268
H    -17.129146423    -10.078490377    -4.378515000
H    -16.250983478    -5.749952075    -2.606774591
