21
-3140.42256
S    5.610476686    -13.574518265    18.070798544
O    5.834501129    -14.467986006    16.982989655
O    4.678197410    -12.470867923    17.974461069
O    5.154549545    -14.432804868    19.392971060
O    6.999940369    -12.941593514    18.605357971
H    4.545790128    -13.985757808    20.001126179
H    7.205047645    -12.008644269    18.324992236
C    6.615373536    -9.570598927    17.487275545
C    5.134435186    -9.703942438    17.428952803
C    4.410459251    -8.398606641    17.134839813
C    4.511336554    -8.051298157    15.681341427
O    7.425047179    -10.420720510    17.795387943
O    7.050075988    -8.335813429    17.160525285
O    4.941638511    -8.704846777    14.769728953
O    3.991644677    -6.812939282    15.469972114
H    4.868066253    -10.487831820    16.663505528
H    4.759893699    -10.166351485    18.377614297
H    4.810926603    -7.559852990    17.752174091
H    3.335885389    -8.473057547    17.420605497
H    8.040091665    -8.246764958    17.162773080
H    4.031712010    -6.521355046    14.526081858
