21
-3140.26397
S    -0.345931087    1.030688414    -3.724052245
O    0.116637924    1.665728196    -2.527033676
O    0.359450981    1.102375234    -4.962521529
O    -0.747948580    -0.511165794    -3.414909304
O    -1.889472488    1.601074190    -3.957140785
H    -1.275013147    -0.999601477    -4.085854639
H    -2.160309111    2.338851787    -3.392399108
C    -5.385507028    -1.019039769    -2.111961958
C    -5.441978498    -0.615145982    -3.554306220
C    -4.050576306    -0.511018472    -4.171049704
C    -3.695756027    -1.752526388    -4.920110416
O    -6.063960208    -0.613829458    -1.206460404
O    -4.424139912    -1.953045372    -1.903884352
O    -4.382773068    -2.643153879    -5.330148290
O    -2.345813494    -1.763301134    -5.175119553
H    -6.077564473    -1.349058067    -4.110567972
H    -5.983378932    0.354773469    -3.636736308
H    -3.283453144    -0.297498136    -3.382773030
H    -3.973458248    0.367838960    -4.857203914
H    -4.353869120    -2.249521524    -0.961197308
H    -2.025220935    -2.561184452    -5.657388310
