21
-3140.38375
S    3.547730311    1.556656324    25.215789138
O    4.399965432    1.505598087    24.068940497
O    2.328543221    0.811335475    25.301016946
O    4.452882341    1.273789586    26.549724014
O    3.173425040    3.118178240    25.552724357
H    4.095842110    1.572500734    27.408974802
H    3.881062517    3.775143620    25.701358183
C    3.328990233    3.988859842    29.004917612
C    2.493373674    4.820124812    28.081973447
C    3.128549453    6.170730565    27.775418223
C    4.388850867    6.041053389    26.979645369
O    3.577356112    2.812211585    28.942975314
O    3.798995390    4.731117129    30.037301054
O    4.797516093    5.114445587    26.320381349
O    5.113182669    7.178019658    27.067430506
H    2.282635586    4.245759129    27.139621886
H    1.488825867    4.967411915    28.545552291
H    3.332248168    6.734967054    28.720967851
H    2.412759872    6.818057498    27.214219407
H    4.358251188    4.218842284    30.676450361
H    5.960676729    7.157751034    26.548848337
