21
-3140.33119
S    -17.353647859    -9.234318016    -0.317355229
O    -17.511592802    -7.819919649    -0.306429890
O    -18.402236533    -10.144095949    0.110039034
O    -16.965186708    -9.730386473    -1.831973498
O    -16.000692585    -9.688329785    0.439855692
H    -17.231874836    -10.634367668    -2.066012104
H    -15.632241167    -9.196583613    1.219998447
C    -14.637117770    -9.731494804    3.457160583
C    -14.854279887    -11.198266928    3.230385529
C    -16.187537572    -11.649348076    3.831302357
C    -17.299801982    -10.985043500    3.060035108
O    -14.830039326    -8.818175285    2.686237182
O    -14.128518770    -9.496069825    4.683451229
O    -17.667351604    -9.847944082    3.212878038
O    -17.811742818    -11.805572779    2.132961132
H    -14.829936404    -11.412469445    2.132539028
H    -14.019292853    -11.784784772    3.674549254
H    -16.257024796    -11.380859129    4.907381636
H    -16.280954291    -12.755720946    3.781719438
H    -14.007753732    -8.530605842    4.889401149
H    -18.314920222    -11.309237215    1.396391035
