21
-3140.41977
S    -3.498283947    -15.526455057    8.914139477
O    -2.560667936    -16.581410973    9.188607074
O    -3.905780830    -15.169673487    7.589356251
O    -4.880501923    -15.843934120    9.748830554
O    -2.993237845    -14.210138672    9.711300637
H    -5.704874001    -15.513030378    9.361907219
H    -2.523140987    -14.363303837    10.565855799
C    1.182483059    -15.537461771    10.721372396
C    0.155379542    -16.601825852    10.920705629
C    -0.319874987    -16.729588363    12.360785353
C    -1.235783596    -15.613422076    12.750636538
O    1.906541610    -15.373247311    9.776272083
O    1.246662015    -14.699044343    11.791946538
O    -1.871149391    -14.845633258    12.069918208
O    -1.341782164    -15.551543052    14.099416340
H    -0.712506864    -16.410455896    10.227056856
H    0.560341506    -17.573490184    10.552729257
H    0.547218290    -16.765192727    13.064621720
H    -0.853677526    -17.698914874    12.507966763
H    1.897459923    -13.962981202    11.679497568
H    -1.950834236    -14.841050753    14.424598272
