21
-3140.29312
S    -5.264691825    9.483968408    20.212426383
O    -4.903981542    8.477829929    19.263613550
O    -5.719031089    10.789670831    19.841529718
O    -6.449501413    8.847849489    21.181103043
O    -4.106339515    9.599428264    21.345701583
H    -7.182143516    9.435387582    21.411777465
H    -3.736294161    8.746544237    21.687364408
C    -3.240366500    3.479152614    22.956324626
C    -3.943612822    4.279681180    21.905204120
C    -5.032627570    5.202588787    22.441388717
C    -4.470046634    6.537699645    22.806809456
O    -2.331007012    2.709404180    22.797684309
O    -3.758410854    3.694805645    24.192792919
O    -3.567993427    7.130535668    22.255687806
O    -5.108343295    7.072504469    23.865547696
H    -3.178395295    4.865370435    21.329254307
H    -4.368611499    3.573889903    21.152644579
H    -5.571825231    4.746548555    23.306767586
H    -5.822768823    5.365165093    21.666776336
H    -3.312759864    3.171709832    24.905630721
H    -4.814418834    7.992349076    24.096754963
