21
-3140.33729
S    2.674933517    17.265771704    27.576918229
O    3.602769263    16.185928774    27.648591128
O    1.951461207    17.607325988    26.383502915
O    1.543279584    17.113790322    28.746039055
O    3.445971285    18.600170835    28.117746877
H    0.659492168    17.471010430    28.545808481
H    4.361931626    18.498539359    28.426588428
C    0.647082898    18.479783912    23.140420382
C    -0.481499990    18.977148872    22.277280544
C    -1.752646806    19.288595005    23.061310209
C    -1.596397454    20.570848767    23.819420612
O    1.714612929    18.089160934    22.743206054
O    0.322052284    18.508022835    24.441906937
O    -0.870712748    21.502183179    23.593860389
O    -2.469448086    20.609177758    24.862764790
H    -0.126676644    19.885153329    21.729915715
H    -0.683499581    18.217553440    21.490049598
H    -1.998321340    18.457608496    23.765297303
H    -2.629662982    19.369947124    22.381876789
H    1.028648807    18.186619758    25.073746237
H    -2.398599397    21.431927518    25.404329431
