21
-3140.47241
S    -3.208196334    9.322408675    22.532022748
O    -3.453226453    8.003656404    23.058144528
O    -4.113471755    9.965758920    21.629163118
O    -3.003981987    10.361535650    23.786378511
O    -1.706143469    9.313294978    21.930050846
H    -3.223207587    11.290848702    23.607902038
H    -1.330764481    8.410281663    21.724832443
C    -1.433493227    5.787679286    22.021894796
C    -1.577365334    5.676403570    23.501629093
C    -1.677975992    4.240623368    23.998735054
C    -0.378804052    3.519153020    23.817962023
O    -1.105607344    6.759669874    21.374563672
O    -1.717163029    4.632993212    21.381339537
O    0.691496711    3.958359385    23.491549140
O    -0.538103167    2.200852928    24.104349556
H    -0.725995261    6.208494394    23.990979630
H    -2.494542082    6.256228488    23.811499441
H    -2.493916022    3.689641771    23.470295162
H    -1.972148660    4.215392412    25.072673778
H    -1.639961524    4.696749525    20.393194864
H    0.283810206    1.664967969    23.981752751
