21
-3140.28470
S    -14.207715343    -7.205835218    -1.839663702
O    -14.406751052    -7.743682941    -3.144948051
O    -14.359643137    -5.823956259    -1.509510913
O    -15.166361595    -8.017162679    -0.761004567
O    -12.757075437    -7.752335511    -1.316512206
H    -15.609609636    -7.470345208    -0.090809776
H    -12.403286440    -8.538314448    -1.771248226
C    -16.648286357    -11.454019145    -1.639637807
C    -17.853698204    -12.330239811    -1.815080652
C    -19.010652925    -11.975673287    -0.887754760
C    -19.743475305    -10.768381517    -1.385678313
O    -15.571820306    -11.603414210    -2.156621500
O    -16.885490599    -10.432445405    -0.787058356
O    -19.609152379    -10.159343477    -2.412109125
O    -20.701239132    -10.411839591    -0.486033074
H    -18.174159272    -12.255672341    -2.885487794
H    -17.550075898    -13.391702148    -1.673148591
H    -18.649533690    -11.788213394    0.152367243
H    -19.722277286    -12.826675495    -0.794782947
H    -16.153689214    -9.753635519    -0.761074908
H    -21.218368259    -9.613944811    -0.753855823
