21
-3140.27480
S    -13.100893810    -8.089948687    -16.335773371
O    -12.154502220    -7.808603275    -17.366004932
O    -14.449021870    -7.621306603    -16.324163525
O    -13.171941958    -9.709427118    -16.093936011
O    -12.367150523    -7.668837599    -14.917169388
H    -14.046441308    -10.088323760    -15.906050522
H    -11.392055674    -7.614886962    -14.934083443
C    -12.160956218    -4.919350551    -12.340986826
C    -11.139608086    -4.304440618    -11.428815095
C    -10.026590567    -5.266549115    -11.026002707
C    -9.056308497    -5.450263696    -12.152202729
O    -13.214725257    -4.441953965    -12.668106165
O    -11.763472620    -6.132915793    -12.780169460
O    -8.822766195    -4.721941445    -13.079798394
O    -8.369393674    -6.612969673    -11.992809833
H    -10.712566985    -3.405177993    -11.940857625
H    -11.660253016    -3.908515650    -10.527643435
H    -10.443713212    -6.255183720    -10.717456277
H    -9.480211287    -4.889027535    -10.132645582
H    -12.377160053    -6.569678919    -13.430699433
H    -7.699603200    -6.777861551    -12.700362991
