21
-3140.37589
S    -17.774090598    -8.421836382    -25.683222202
O    -16.806426796    -9.074663648    -26.504888283
O    -18.779565780    -7.526846673    -26.200556000
O    -18.579018747    -9.521677089    -24.787945932
O    -16.939562667    -7.651945651    -24.505509903
H    -19.516425662    -9.318925757    -24.579722976
H    -15.998166020    -7.879832990    -24.418580444
C    -22.457712768    -8.179230153    -25.856408125
C    -23.370254940    -9.213413108    -25.264142078
C    -22.742976964    -10.024692212    -24.136691814
C    -22.705131660    -9.222085979    -22.872399391
O    -22.741604644    -7.382828134    -26.709593494
O    -21.214134040    -8.233699956    -25.329623246
O    -23.347785371    -8.253209916    -22.570673343
O    -21.809776431    -9.765548992    -22.005821217
H    -24.296744271    -8.696554273    -24.905371980
H    -23.712354573    -9.885871530    -26.083526639
H    -21.718022850    -10.370218081    -24.407666470
H    -23.318707834    -10.960217011    -23.954105289
H    -20.541340106    -7.618085323    -25.767614972
H    -21.750163023    -9.285263947    -21.143411000
