21
-3140.31139
S    -10.324555791    -2.631874585    -18.291699800
O    -9.556770890    -3.774284704    -18.684800202
O    -10.009926425    -1.284644679    -18.641148034
O    -11.880266982    -2.910881508    -18.726729744
O    -10.503783825    -2.731646014    -16.663152326
H    -12.451899458    -2.142136202    -18.897651137
H    -10.401703009    -3.610666179    -16.266376789
C    -14.556208381    -5.079185007    -20.414699022
C    -13.131906208    -5.491761181    -20.229128616
C    -12.544365991    -6.261661924    -21.404957965
C    -12.196268065    -5.332989719    -22.526337554
O    -15.209033291    -4.357046705    -19.707175313
O    -15.117065753    -5.645300840    -21.515948204
O    -12.231737584    -4.132476545    -22.564665468
O    -11.771385299    -6.051333825    -23.600471450
H    -12.522203431    -4.567488937    -20.027649875
H    -13.051617450    -6.086024860    -19.290984919
H    -13.247105884    -7.048254976    -21.770886528
H    -11.629643198    -6.816617540    -21.093053189
H    -16.054712733    -5.366803549    -21.666487009
H    -11.522897126    -5.495164180    -24.378280367
