21
-3140.34119
S    -0.209614248    18.865689517    26.558770043
O    0.249467346    17.976344566    27.578180918
O    0.628326707    19.397701570    25.512633144
O    -1.496671579    18.234737689    25.780135484
O    -0.938769144    20.114297548    27.330840869
H    -1.601986838    18.589529314    24.860578850
H    -1.157166046    19.983175541    28.267382252
C    -1.364257373    19.236639784    22.163404172
C    -2.833363461    19.102396100    21.888333491
C    -3.707677613    19.915192874    22.837392856
C    -3.551852753    21.381680512    22.574159176
O    -0.453910623    19.071073799    21.402814630
O    -1.136680698    19.547937129    23.467575587
O    -2.939182357    21.930933467    21.699051486
O    -4.252080233    22.092678626    23.495346081
H    -3.018762555    19.410939270    20.828663753
H    -3.109251370    18.024702121    21.934960070
H    -3.465349559    19.699810546    23.905885312
H    -4.778486078    19.630000383    22.730662670
H    -0.171955572    19.700010290    23.721190187
H    -4.173749507    23.073340647    23.384914373
