21
-3140.50742
S    -23.748054228    -11.577251725    -18.785856657
O    -22.654358421    -11.762379660    -19.721252792
O    -25.107278277    -11.842899330    -19.136301216
O    -23.415214350    -12.503433968    -17.469981635
O    -23.572589471    -10.110933930    -18.156337926
H    -24.148022208    -13.003362182    -17.078835831
H    -22.628907285    -9.738091185    -18.167265440
C    -19.326943962    -10.182290375    -15.709936851
C    -18.676948663    -9.226390415    -16.665686394
C    -18.638855423    -9.744376082    -18.101491452
C    -20.041822218    -9.993503347    -18.582237926
O    -19.353420844    -10.117903449    -14.510474578
O    -19.937293254    -11.197185588    -16.370570172
O    -21.013156624    -9.341521856    -18.244107257
O    -20.102804886    -10.993339592    -19.452539101
H    -19.244575818    -8.262141382    -16.620782465
H    -17.651930850    -8.987318568    -16.304623592
H    -18.042568022    -10.683735401    -18.172763759
H    -18.135972534    -9.016932102    -18.774359189
H    -20.461173041    -11.807910909    -15.794143248
H    -21.049009090    -11.314202921    -19.679983751
