21
-3140.31385
S    -5.511578698    19.663638250    24.026417390
O    -4.904927255    18.436285913    23.570242912
O    -6.546435930    20.357080925    23.336897541
O    -6.037509422    19.431266642    25.555700086
O    -4.256608595    20.671401722    24.311511010
H    -6.908146448    19.800544515    25.786668272
H    -3.365949628    20.279919621    24.263823654
C    -6.525576538    15.874136320    21.941490112
C    -7.139137628    14.508460603    21.789173192
C    -6.696128742    13.518803139    22.859798262
C    -7.299847019    13.860264947    24.186520357
O    -6.759463928    16.824042044    21.237865322
O    -5.654495209    15.928376837    22.960991236
O    -8.140217799    14.671987410    24.466460877
O    -6.777117602    13.047530651    25.146390167
H    -8.249529010    14.630227468    21.801661389
H    -6.894089381    14.122775459    20.775123221
H    -5.582068427    13.508632278    22.953509368
H    -6.975116479    12.478179144    22.581574465
H    -5.305257374    16.853292329    23.159736917
H    -7.118660186    13.233461124    26.053364100
