21
-3140.32560
S    3.718900448    16.844966125    29.684938789
O    3.264253785    15.561048765    30.135750709
O    4.897365259    17.023111386    28.896780680
O    2.474254401    17.602512653    28.964831626
O    3.840769971    17.776436693    31.039670647
H    2.663282644    18.406733642    28.425887606
H    3.359121892    17.460468376    31.817506828
C    2.184604347    20.257282232    26.646435589
C    0.903898607    19.670034274    26.147774540
C    0.434964138    20.258053877    24.821673462
C    1.168810881    19.632058804    23.675523933
O    2.884561179    19.836304948    27.538988776
O    2.524366954    21.399842312    26.014012547
O    1.955008313    18.723501106    23.690944265
O    0.806241565    20.229323264    22.512106204
H    1.032626549    18.557952505    26.059831711
H    0.122048137    19.802294959    26.932508140
H    0.567413869    21.367802251    24.793200318
H    -0.660467025    20.108340421    24.684303063
H    3.384564921    21.787015295    26.332690292
H    1.258029334    19.853207831    21.715199124
