21
-3140.53228
S    -4.246233708    -22.583142018    7.542848835
O    -5.066859331    -22.872555999    6.412347263
O    -3.073092462    -21.732908720    7.461181027
O    -5.134331164    -22.041893065    8.770982538
O    -3.753405710    -24.010966353    8.180068760
H    -4.664133797    -21.445591987    9.438850077
H    -4.407557771    -24.719071700    8.266603030
C    -2.640581774    -19.964983336    10.308847967
C    -2.061557923    -19.002090578    11.306306949
C    -1.120043108    -17.987402259    10.667393014
C    -1.857072518    -17.108294459    9.704234001
O    -3.696905050    -20.547740156    10.461935181
O    -1.859252674    -20.154518433    9.251891033
O    -3.036688133    -17.048854986    9.484118566
O    -0.979819973    -16.300660713    9.053784692
H    -2.904419660    -18.486094436    11.828157978
H    -1.530907035    -19.581066152    12.095542647
H    -0.283039104    -18.501375660    10.132457143
H    -0.626706770    -17.360262770    11.443261548
H    -2.250108027    -20.767441304    8.526062311
H    -1.403063066    -15.722599592    8.371317833
