21
-3140.46231
S    2.330797234    4.920774132    28.211226549
O    2.275986341    5.258680432    26.821292347
O    3.223304952    5.566680602    29.138498833
O    0.852900498    4.983223384    28.865400261
O    2.612638370    3.302309709    28.276543485
H    0.817345780    5.001947345    29.861728447
H    2.484030594    2.805448140    27.453392050
C    1.426710659    8.306497832    32.489460479
C    2.317792924    7.620839876    31.502835438
C    2.998029539    6.366097094    32.037969920
C    2.021170556    5.252975131    32.219602289
O    0.626440899    9.177684077    32.274609064
O    1.617306807    7.841428566    33.751444036
O    1.061655125    4.952063298    31.541082388
O    2.317914888    4.513802528    33.309026693
H    1.728129893    7.384437851    30.581654634
H    3.089401876    8.349278551    31.154159276
H    3.539795795    6.575990811    32.990002859
H    3.786943900    6.027435296    31.309323564
H    1.037881444    8.275627633    34.426730749
H    1.700414801    3.751431679    33.457945266
