21
-3140.28675
S    -6.709806427    12.638023096    21.971776822
O    -6.121105394    11.581324632    21.207204644
O    -7.376472012    13.770836428    21.417466880
O    -7.759020036    11.944481732    23.031418882
O    -5.561811764    13.141005548    23.026163623
H    -8.516667737    12.480333332    23.315129997
H    -4.774929415    12.575519817    23.113252747
C    -8.214222628    8.062643897    20.467515932
C    -7.449695682    8.780655641    21.528249921
C    -6.943826606    7.876993022    22.645752423
C    -5.564747975    7.372302385    22.357883918
O    -9.001627195    8.526342432    19.683927812
O    -7.943200810    6.729839990    20.453465289
O    -4.813723491    7.633309596    21.458458443
O    -5.185085767    6.510611070    23.344782942
H    -6.592649042    9.327278946    21.036307564
H    -8.084290483    9.599035011    21.942705642
H    -7.627674223    7.009739044    22.808349274
H    -6.940642618    8.419119838    23.618676817
H    -8.410584765    6.241048269    19.731520052
H    -4.290585932    6.118083588    23.206896384
