21
-3140.34936
S    0.847464106    0.058940845    -4.921353852
O    0.647421402    0.071734456    -6.333776298
O    -0.147218881    -0.385892039    -3.986992797
O    2.210268331    -0.774104157    -4.560805176
O    1.339784011    1.559884073    -4.490829547
H    2.273987719    -1.139700924    -3.663370827
H    1.408256730    2.222156639    -5.199366228
C    -3.904694299    0.823195243    -3.858453841
C    -3.082816107    -0.417924996    -3.766293993
C    -3.821950580    -1.624720963    -3.204494821
C    -4.694495238    -2.253568228    -4.243064199
O    -3.658809210    1.831330777    -4.467806159
O    -5.038288182    0.744276082    -3.107634380
O    -4.769233602    -2.030941010    -5.421611627
O    -5.458666028    -3.225818056    -3.673668212
H    -2.659599072    -0.647922026    -4.777864474
H    -2.173637196    -0.197481962    -3.146422290
H    -4.432172447    -1.348386181    -2.310611136
H    -3.096668937    -2.382398263    -2.827641754
H    -5.605121188    1.551289815    -3.165511493
H    -6.068000988    -3.674336835    -4.308425870
