21
-3140.31068
S    -2.604296360    3.039113735    1.356088226
O    -1.619356204    2.654369988    0.373435818
O    -3.791035762    3.767442568    1.059649728
O    -3.060571195    1.697145074    2.168356289
O    -1.759678752    3.800176904    2.529967609
H    -4.005035019    1.607916356    2.385320589
H    -0.788901574    3.767659593    2.460980833
C    -2.411013121    1.843731842    -2.893605300
C    -2.636817734    0.899206572    -4.043273931
C    -1.869004491    -0.410173651    -3.905680875
C    -2.446523549    -1.249084215    -2.807577407
O    -2.866238678    2.955481838    -2.803237371
O    -1.621375268    1.306199527    -1.951196088
O    -3.494066768    -1.141708132    -2.228621312
O    -1.604036803    -2.281647582    -2.529095454
H    -3.734736247    0.704554682    -4.114379225
H    -2.365361244    1.416040386    -4.989647510
H    -0.789068993    -0.215194159    -3.694919859
H    -1.884087615    -0.984180171    -4.858091917
H    -1.546108035    1.848166976    -1.104588552
H    -1.913986220    -2.857223827    -1.789597689
