21
-3140.35237
S    -10.390743795    -22.718995940    6.826580550
O    -9.806382435    -23.917442224    6.322741568
O    -11.646017705    -22.205238296    6.374047694
O    -10.591752955    -22.929056284    8.487528596
O    -9.292026036    -21.547548259    6.925554077
H    -11.453304621    -22.686935211    8.853445980
H    -8.522391697    -21.684037816    7.555866961
C    -4.568013630    -21.084978131    9.925862424
C    -5.000043107    -22.493728785    10.201406608
C    -6.373414482    -22.606801353    10.853329735
C    -7.463891251    -22.477817097    9.836498394
O    -3.690246578    -20.724440491    9.188710057
O    -5.268898312    -20.184792321    10.663846996
O    -7.356699899    -22.039619319    8.710184037
O    -8.626761646    -22.931008974    10.315168097
H    -4.974942068    -23.058920816    9.236152182
H    -4.227168714    -22.977563327    10.843080546
H    -6.515311166    -21.825438313    11.641881595
H    -6.476161625    -23.572566059    11.399339727
H    -5.006488424    -19.245933924    10.489140133
H    -9.394974146    -22.925683391    9.661067522
