21
-3140.32553
S    -10.690283951    -2.948831459    -18.486816543
O    -10.529972836    -4.363029072    -18.266646774
O    -11.601025722    -2.412756496    -19.447787962
O    -11.029844944    -2.229185834    -17.061392759
O    -9.187882444    -2.368247751    -18.743347177
H    -11.623215853    -1.458393611    -17.083210458
H    -8.458364898    -3.017732723    -18.722858281
C    -10.557430471    -7.266279802    -20.423209324
C    -11.319239810    -7.894851505    -21.561209102
C    -12.660191000    -7.203810351    -21.814074227
C    -12.426831829    -5.754008728    -22.129356083
O    -9.393267925    -7.424090742    -20.161569788
O    -11.364712427    -6.472998920    -19.702557920
O    -11.562290481    -5.278156882    -22.818776122
O    -13.365639085    -4.974135157    -21.541973153
H    -10.680905777    -7.853593391    -22.475899319
H    -11.469659518    -8.973829006    -21.344285371
H    -13.323441630    -7.298487338    -20.921253013
H    -13.202641820    -7.685495512    -22.654224221
H    -10.922097641    -5.868668443    -19.036914388
H    -13.154490021    -4.004453247    -21.573624702
