21
-3140.21744
S    -19.284687252    -17.855989894    -7.206826979
O    -18.364549891    -18.792457765    -6.639156929
O    -19.409298783    -17.598193140    -8.606930480
O    -20.795836167    -18.169832089    -6.654452938
O    -19.022305946    -16.436863325    -6.421621322
H    -21.531674959    -17.928514118    -7.241928567
H    -18.516026461    -16.490708867    -5.595339421
C    -17.865964212    -23.285757971    -2.275988347
C    -17.202698932    -22.001714177    -2.673810311
C    -15.958759814    -22.197232959    -3.533005020
C    -16.327739673    -22.660613380    -4.908717615
O    -18.990361403    -23.433013733    -1.877693641
O    -17.016882037    -24.343057567    -2.365984172
O    -17.400857142    -22.970607238    -5.348259092
O    -15.212507292    -22.703187908    -5.687709435
H    -17.954216727    -21.372813888    -3.214491687
H    -16.950242369    -21.432524782    -1.750493132
H    -15.260962500    -22.937751256    -3.070055417
H    -15.372517936    -21.253562652    -3.601616258
H    -17.447030935    -25.208027052    -2.148150807
H    -15.390163851    -22.987699090    -6.617051713
