21
-3140.23495
S    -6.255129872    10.575319876    21.612910323
O    -5.101571878    11.369153920    21.901128710
O    -7.444871556    11.086434332    21.011961039
O    -5.820099511    9.260460507    20.737961725
O    -6.616213200    9.813880417    23.026228810
H    -6.437141948    8.984387568    20.036347877
H    -6.164099776    10.146041757    23.819670030
C    -2.412847550    7.201045426    22.389234085
C    -3.568044870    7.768635173    23.155125781
C    -4.860944567    6.978854455    22.985952647
C    -4.787471388    5.683469544    23.726289458
O    -1.247161891    7.460741093    22.527517603
O    -2.815930354    6.323409614    21.432705948
O    -3.927528085    5.276416190    24.461891632
O    -5.903411126    4.941778034    23.491580503
H    -3.279389460    7.823929924    24.233259734
H    -3.711488838    8.825708399    22.827378761
H    -5.077125210    6.791924691    21.904399006
H    -5.741607840    7.565297420    23.340127802
H    -2.064544107    5.927608117    20.924900530
H    -5.897008218    4.065159613    23.949421849
