21
-3140.34846
S    7.458600151    -13.861335935    16.280412856
O    7.634085187    -15.152198952    15.700368661
O    6.515226478    -12.885720750    15.818717363
O    7.230914606    -14.017413005    17.893578025
O    8.925279758    -13.125135890    16.298713289
H    6.853162490    -13.249533699    18.356184771
H    9.714198092    -13.687094866    16.236805168
C    8.682991382    -9.243903238    16.685386142
C    7.727653753    -9.851536801    15.710423025
C    6.293038599    -9.947367449    16.216997012
C    5.606813477    -8.625745767    16.121035839
O    9.811523723    -8.880535187    16.482171012
O    8.149163418    -9.141275617    17.934412030
O    5.920683174    -7.648751417    15.493109975
O    4.467389826    -8.628483158    16.864936800
H    7.766987910    -9.263942099    14.759072893
H    8.103514267    -10.868492739    15.434657146
H    6.252324580    -10.331545723    17.261870076
H    5.722644710    -10.711902055    15.628174418
H    8.752829436    -8.702070381    18.582024568
H    3.978730263    -7.769736262    16.840522772
