21
-3140.37549
S    2.882394432    2.645907769    27.423724600
O    3.404976347    1.317719507    27.328836951
O    2.115426850    3.239669711    26.372166199
O    2.017450150    2.749388835    28.817146181
O    4.077655692    3.671639625    27.866732846
H    1.391798367    3.489040216    28.957173468
H    4.128308588    3.927874864    28.809383607
C    3.021741036    4.649057454    31.524247318
C    2.043436454    3.546347612    31.784746373
C    0.629498531    4.063625391    32.021462566
C    0.081110357    4.784157821    30.830273925
O    3.922435833    4.681048544    30.725986973
O    2.810479366    5.692922052    32.362820925
O    0.418733950    4.729654001    29.670519242
O    -0.937932995    5.589794876    31.199207683
H    2.072895783    2.809561891    30.937484704
H    2.389005109    2.963030514    32.670789611
H    0.602240867    4.736314449    32.915819719
H    -0.054129207    3.220685739    32.280931531
H    3.436310048    6.450110672    32.227644544
H    -1.345664688    6.094368407    30.445516494
