21
-3140.38470
S    -15.286160181    -8.180226538    -26.844311953
O    -14.465228693    -9.163781603    -27.488634969
O    -15.439319727    -6.848616745    -27.337302522
O    -16.769808895    -8.813308351    -26.614632385
O    -14.785533358    -8.141552661    -25.279872613
H    -17.576058014    -8.293082078    -26.885459734
H    -14.242210833    -8.891256753    -24.990049570
C    -19.960296643    -8.899675764    -26.860937479
C    -21.458291000    -8.879037279    -26.836709137
C    -22.032734138    -9.631762906    -25.641150604
C    -21.621123550    -8.978556244    -24.357445158
O    -19.236583967    -8.019184669    -27.271962617
O    -19.456816905    -10.066092634    -26.412751234
O    -20.750810510    -8.171668390    -24.170841388
O    -22.390583890    -9.433109119    -23.335717630
H    -21.800332048    -7.815310130    -26.836169048
H    -21.841346478    -9.314396532    -27.788520295
H    -21.686629375    -10.694811339    -25.633681162
H    -23.142715945    -9.693265911    -25.705531459
H    -18.453635766    -10.088176986    -26.378068540
H    -22.142305265    -9.054590167    -22.454541965
