21
-3140.37482
S    -9.812450833    -4.133387308    -4.323389965
O    -10.127971353    -3.850506131    -2.955278565
O    -10.013982902    -5.410703142    -4.928137646
O    -10.534638955    -3.023738385    -5.280782529
O    -8.255172487    -3.654299632    -4.525952967
H    -11.068317440    -3.334468350    -6.075985742
H    -7.842808736    -3.206429543    -3.769281888
C    -11.837038774    -1.724915719    -7.712687160
C    -12.581058293    -0.972450134    -8.766564593
C    -12.336723887    0.533135337    -8.766737974
C    -11.390036956    0.927746481    -9.858338154
O    -11.931247175    -2.921238724    -7.510162952
O    -11.033308662    -0.965056195    -6.952913733
O    -10.956454477    0.263119466    -10.761226420
O    -11.065248415    2.240194166    -9.734924533
H    -12.318968148    -1.416627087    -9.765278364
H    -13.668990932    -1.193666621    -8.650489284
H    -11.944509153    0.892491062    -7.783002515
H    -13.293006903    1.090817198    -8.895492278
H    -10.566897103    -1.479735169    -6.221634971
H    -10.446038909    2.564941791    -10.435446418
