21
-3140.37649
S    -0.235946883    -15.073788201    14.026645074
O    0.248543231    -16.296121024    14.602322596
O    0.437226881    -14.423098458    12.932163303
O    -1.796996956    -15.222036726    13.588792855
O    -0.373825327    -14.004637663    15.253364230
H    -2.091068101    -14.664923184    12.842617934
H    0.328849550    -14.058633107    15.933793658
C    4.176680603    -13.621746216    13.447686766
C    5.145386658    -14.038639941    14.520203317
C    4.462838076    -14.508680738    15.804782376
C    3.644969562    -15.736599671    15.514301107
O    4.447477437    -13.155774656    12.373205270
O    2.906048574    -13.836061079    13.837621500
O    3.984671696    -16.706516658    14.891170942
O    2.417666731    -15.653067372    16.083049174
H    5.787067395    -14.854631507    14.103785763
H    5.838741852    -13.195777850    14.731448427
H    3.825457039    -13.703513852    16.232116485
H    5.218770722    -14.749157297    16.582924230
H    2.201506575    -13.759082536    13.128689197
H    1.776798458    -16.353752914    15.757937955
