21
-3140.53971
S    -6.244781634    11.316585719    20.506232306
O    -5.916796234    12.085483974    19.347824034
O    -7.529291787    10.659131866    20.658965296
O    -5.126156531    10.200119574    20.795908271
O    -6.027916782    12.304664669    21.795304405
H    -5.442197302    9.318305375    21.175922658
H    -5.424669203    13.055719883    21.666344779
C    -5.791144453    5.751476880    24.068621850
C    -6.457937605    5.342571444    22.790557327
C    -7.675592502    6.189323118    22.438469045
C    -7.264322723    7.541674976    21.938002003
O    -4.687559434    5.460219751    24.444278795
O    -6.610382479    6.508020971    24.845948304
O    -6.118537207    7.905019148    21.748022555
O    -8.314158523    8.317093597    21.692829602
H    -5.697405555    5.393484974    21.970625675
H    -6.739140489    4.267279905    22.866379410
H    -8.355103410    6.308431257    23.318376777
H    -8.300687154    5.685897727    21.667029009
H    -6.190256570    6.797735363    25.694160704
H    -8.089674556    9.249226364    21.327526377
