21
-3140.37528
S    -13.975753911    -7.178151955    -7.542345821
O    -13.616371589    -8.173811533    -6.575954480
O    -13.843847287    -7.343745635    -8.952840254
O    -15.538710346    -6.772402918    -7.236906759
O    -13.260478636    -5.778198804    -7.095405190
H    -16.019929001    -6.288122943    -7.924547425
H    -13.096989754    -5.648167450    -6.143426270
C    -14.137399727    -9.318727588    -2.571110895
C    -14.405692501    -8.822173977    -3.951415009
C    -15.875442614    -8.555591108    -4.253154379
C    -16.301541943    -7.232622673    -3.703519189
O    -13.074961304    -9.408682646    -2.012903214
O    -15.273267506    -9.718558806    -1.936928935
O    -15.626910629    -6.290287265    -3.377250217
O    -17.657233778    -7.171793974    -3.622348691
H    -13.793025236    -7.902056686    -4.126907490
H    -13.986796473    -9.552622359    -4.690959728
H    -16.527536568    -9.370701642    -3.860754578
H    -16.049024340    -8.555554381    -5.357466256
H    -15.114497649    -10.045349539    -1.017094252
H    -17.997281596    -6.318832916    -3.260261388
