21
-3140.35751
S    -11.461444286    -26.882559304    7.701689179
O    -10.929550509    -27.560323247    6.564716281
O    -12.269861033    -25.699469621    7.621767590
O    -12.276163105    -27.943604953    8.643677710
O    -10.211748817    -26.543775268    8.703650001
H    -12.949172327    -27.574359746    9.239751995
H    -9.337819975    -26.907936087    8.482998838
C    -10.890318404    -22.354806889    10.531939880
C    -11.159665844    -23.339394858    9.442245724
C    -10.984111816    -22.780343292    8.035353231
C    -9.537159245    -22.662291060    7.684730338
O    -10.918779257    -22.549328901    11.719675890
O    -10.606986473    -21.115914729    10.049282514
O    -8.568125258    -23.059688288    8.276672396
O    -9.396657525    -22.018951993    6.492917234
H    -10.489150519    -24.226686876    9.595512647
H    -12.193491480    -23.742608922    9.562333154
H    -11.485846406    -21.790959507    7.924383280
H    -11.500597731    -23.441815066    7.293039082
H    -10.389105303    -20.458822417    10.756698689
H    -8.457043764    -21.891467919    6.219327002
