21
-3140.26745
S    -20.013072366    -17.002190721    -7.695032531
O    -19.035600616    -17.300018046    -8.690482444
O    -20.864366344    -15.851244747    -7.776076563
O    -21.044992545    -18.292664935    -7.542696975
O    -19.332817736    -17.082340770    -6.220302800
H    -21.975195137    -18.113930293    -7.735444798
H    -18.995473444    -17.962299739    -5.936788352
C    -19.883965790    -22.447464923    -6.556137702
C    -20.785232112    -21.569196106    -5.744458538
C    -20.244528917    -21.248283550    -4.354341096
C    -19.240613789    -20.144091265    -4.431834785
O    -20.031287249    -22.789417225    -7.698301267
O    -18.819407544    -22.886924164    -5.833178475
O    -18.820860843    -19.594632409    -5.421922036
O    -18.800704967    -19.800177956    -3.202176915
H    -20.961501354    -20.624672181    -6.330114403
H    -21.784673416    -22.054213229    -5.674226440
H    -19.779203046    -22.146913661    -3.877853059
H    -21.068486325    -20.960690517    -3.662628871
H    -18.190589390    -23.443683562    -6.357772025
H    -18.134501040    -19.065681230    -3.196976011
