21
-3140.50666
S    1.362868651    0.967276050    25.799959408
O    0.432561479    2.043184133    26.087202049
O    0.966480940    -0.404674814    25.848814990
O    1.999651846    1.214309225    24.313358147
O    2.646343857    1.225157262    26.733932895
H    2.372831943    0.433199424    23.870888957
H    2.608771293    2.024851210    27.352312025
C    2.673233929    6.874123676    29.270436723
C    2.593789349    5.607419879    30.064144731
C    1.280003005    4.848645041    29.903496282
C    1.353845101    3.889473141    28.751384528
O    3.563380431    7.683024737    29.280106221
O    1.580068765    7.056884094    28.487794933
O    2.360016810    3.298376457    28.401127753
O    0.175990708    3.708694655    28.168893927
H    3.460152140    4.956248398    29.774143504
H    2.776835313    5.851634053    31.136193518
H    0.417643473    5.546577417    29.770339112
H    1.042083548    4.273163607    30.826735469
H    1.614630025    7.886291050    27.947004398
H    0.185384399    3.082401479    27.356272273
