21
-3140.35361
S    6.228558908    -14.925162962    14.746678531
O    7.216603339    -15.679774996    15.446628486
O    5.419230718    -15.445056177    13.686479891
O    5.192428459    -14.255616279    15.831813666
O    6.938364278    -13.551598159    14.209039925
H    4.289327008    -14.082669679    15.521707682
H    7.723611475    -13.214073040    14.694465660
C    6.774282844    -10.888153745    14.413335575
C    6.532139787    -10.950889919    12.938275540
C    5.056049145    -11.079075083    12.577227848
C    4.369013795    -9.752809503    12.678474562
O    7.800942597    -11.139580279    14.998931666
O    5.677579531    -10.483460206    15.096406989
O    4.836673549    -8.649711855    12.584884850
O    3.034192510    -9.932989814    12.861648904
H    6.979071568    -10.042094329    12.464397042
H    7.103414090    -11.817133444    12.520944308
H    4.548176527    -11.830605837    13.225969967
H    4.936445070    -11.473508358    11.542106578
H    5.820943695    -10.416898795    16.075267542
H    2.529344497    -9.087386419    12.948841267
