21
-3140.34823
S    1.696532239    -6.426456932    20.641462141
O    2.056622883    -5.750637780    19.436126442
O    0.913203592    -5.803782586    21.671078669
O    0.962344119    -7.845934155    20.288169389
O    3.066105262    -7.019511965    21.310678618
H    0.513182551    -8.299337585    21.020158654
H    3.911472826    -6.673488956    20.972553776
C    2.656007930    -2.315721403    24.980145535
C    1.883661826    -3.382318268    24.272400086
C    1.339105386    -2.958206036    22.913868421
C    2.436015153    -2.875748808    21.901850375
O    3.282281992    -2.421840362    26.001945659
O    2.576054483    -1.118348630    24.343176409
O    3.512597477    -3.418249235    21.904003882
O    2.062768347    -2.086915562    20.862942081
H    2.540910928    -4.282827964    24.160110499
H    1.051577328    -3.720023695    24.932250942
H    0.788290881    -1.992351395    22.976064978
H    0.583823336    -3.706801374    22.552358411
H    3.098372561    -0.402519999    24.784712489
H    2.732184118    -2.043448984    20.136015663
