21
-3140.34260
S    -11.371577748    -9.958478558    -26.408124554
O    -10.043816327    -9.463083687    -26.564723878
O    -12.423579220    -9.788874855    -27.365411663
O    -11.313777301    -11.553694449    -26.043229289
O    -11.943915549    -9.395115291    -24.974868007
H    -12.138655039    -12.056890507    -26.151819739
H    -11.297590520    -9.145247506    -24.295897311
C    -15.766417909    -9.326280776    -24.109724026
C    -15.247738235    -8.961812914    -25.462885633
C    -15.383101304    -10.067822596    -26.502140291
C    -16.792538308    -10.189807615    -26.979360985
O    -15.923046200    -8.600965780    -23.162900599
O    -16.056983268    -10.652141112    -24.009366444
O    -17.705377450    -9.414287062    -26.874376519
O    -16.960763754    -11.370853439    -27.635305770
H    -15.772401617    -8.035925476    -25.807067712
H    -14.174555953    -8.662078401    -25.358675659
H    -15.030209717    -11.045548032    -26.102462450
H    -14.713988615    -9.861663437    -27.378948571
H    -16.431188704    -10.904655238    -23.129752695
H    -17.883082856    -11.518199959    -27.956246007
