21
-3140.31138
S    -8.168151479    -2.738635879    -3.234809021
O    -7.479450805    -3.792220162    -3.904828710
O    -9.289146527    -2.041729912    -3.811652490
O    -8.682313642    -3.260160885    -1.772914351
O    -7.040626708    -1.660814146    -2.751796310
H    -9.574107412    -2.985393895    -1.493741904
H    -6.118569069    -1.976876345    -2.744632626
C    -11.332047341    -3.145992800    -6.567176873
C    -12.303879993    -4.167203466    -7.090992851
C    -12.931894279    -5.032023396    -6.002489808
C    -14.121476106    -4.350010069    -5.402415929
O    -10.637437458    -2.428876852    -7.239987138
O    -11.305959568    -3.121923241    -5.224026839
O    -14.811686955    -3.479343019    -5.860929113
O    -14.406542010    -4.893581905    -4.187689489
H    -13.093616283    -3.633049554    -7.675846422
H    -11.771955957    -4.801927119    -7.835124179
H    -12.187825121    -5.273000354    -5.204725104
H    -13.247523137    -6.017938907    -6.410100604
H    -10.609003475    -2.525469196    -4.815712681
H    -15.189840033    -4.484846582    -3.746297552
