21
-3140.40221
S    -5.390956160    -14.681382539    9.982138010
O    -4.495650705    -15.422408764    10.828207124
O    -5.722317608    -15.089267022    8.651275577
O    -6.817374098    -14.496680885    10.779926251
O    -4.895922198    -13.139676402    9.967290114
H    -7.583978781    -14.251085735    10.240296671
H    -4.231263964    -12.859921841    10.636874301
C    -0.608358778    -14.929904114    11.746379361
C    -1.858867081    -14.929031854    12.563797729
C    -1.940929747    -13.729240629    13.498095277
C    -2.381701018    -12.492295219    12.779203134
O    0.127365746    -15.848136690    11.503725088
O    -0.343300573    -13.685506691    11.263856505
O    -3.149245652    -12.362363271    11.858145230
O    -1.836932658    -11.396388106    13.356847580
H    -2.750987760    -14.971324536    11.875673060
H    -1.924999542    -15.882515788    13.136330636
H    -0.962749225    -13.551166978    14.005197286
H    -2.662610308    -13.932279894    14.324864050
H    0.462682316    -13.644423525    10.692786141
H    -2.102744856    -10.541055341    12.932736977
