21
-3140.35914
S    -8.488138015    -4.446621512    -4.295941238
O    -8.862645338    -5.330319365    -3.234563813
O    -8.715287201    -4.759534160    -5.680426836
O    -9.131958838    -2.976901658    -4.050685665
O    -6.901446803    -4.101761007    -4.072442571
H    -9.398537557    -2.459670969    -4.851850936
H    -6.525302394    -4.337524384    -3.208184428
C    -9.747455601    -2.187769776    -7.478095240
C    -10.672492861    -3.353942736    -7.555395649
C    -11.891669987    -3.236365555    -6.649060748
C    -12.801481831    -2.145182886    -7.120079713
O    -8.991296472    -1.753425011    -8.297335643
O    -9.803384515    -1.575518825    -6.239357374
O    -12.700647374    -1.443013680    -8.090018639
O    -13.851926424    -2.014301477    -6.268689209
H    -10.984315458    -3.488686489    -8.619723961
H    -10.089878997    -4.285111071    -7.304488030
H    -11.599432601    -3.045878808    -5.588203970
H    -12.448059372    -4.201430228    -6.613628016
H    -9.262765035    -0.748860375    -6.188977336
H    -14.482614529    -1.295334719    -6.521539890
