21
-3140.49399
S    -13.137745347    -7.566166898    -14.757123326
O    -11.757836412    -7.931053121    -14.562717962
O    -13.778825348    -7.586626044    -16.036161904
O    -14.046624500    -8.507547258    -13.762366514
O    -13.358063083    -6.130174600    -14.051190351
H    -14.995188920    -8.553737599    -13.955710387
H    -12.635802194    -5.805918569    -13.441863661
C    -10.309093812    -5.885499465    -12.202360873
C    -10.001843756    -7.337284896    -12.326028187
C    -8.744610964    -7.762783402    -11.580111108
C    -8.959211813    -7.695127053    -10.099516387
O    -11.334152607    -5.308075761    -12.496730373
O    -9.276311680    -5.171718560    -11.702589898
O    -9.992647534    -7.626062822    -9.489034358
O    -7.766040622    -7.742500234    -9.452717942
H    -10.887893035    -7.931705042    -11.982236434
H    -9.924228406    -7.603760667    -13.417183791
H    -7.868657302    -7.134295034    -11.870201990
H    -8.455559015    -8.801416296    -11.861951606
H    -9.474029413    -4.203723235    -11.599768185
H    -7.845900276    -7.695041152    -8.467792932
