21
-3140.19303
S    -13.750031091    -23.933214101    1.769546888
O    -14.553579251    -24.296967099    0.646501669
O    -13.740720481    -22.634476090    2.369061200
O    -14.031901094    -24.992109404    2.995189119
O    -12.208490185    -24.362801458    1.418385730
H    -13.920678784    -24.646835598    3.893684214
H    -12.086691711    -25.047666912    0.739003363
C    -9.770627200    -26.278796171    7.130819966
C    -10.843910674    -25.414996630    6.536638624
C    -10.315110807    -24.123484406    5.923068131
C    -9.514331219    -24.404071790    4.688180802
O    -9.832095036    -27.453510841    7.375470450
O    -8.656989288    -25.560593422    7.429542514
O    -9.260710345    -25.458032128    4.170131403
O    -9.063764743    -23.236140240    4.161940027
H    -11.389345855    -26.017946652    5.769899886
H    -11.591510576    -25.188465113    7.330288804
H    -9.681048135    -23.562534949    6.653862034
H    -11.147062169    -23.426371147    5.676234464
H    -7.919513618    -26.114648728    7.790859403
H    -8.543916608    -23.350329113    3.327971573
