21
-3140.31584
S    -15.049047455    -4.844126998    0.379393945
O    -14.315904212    -5.948577489    0.926337913
O    -15.464366281    -4.761422048    -0.984300544
O    -16.383592632    -4.580875542    1.295374281
O    -14.206733199    -3.495122984    0.771412545
H    -17.125039026    -4.127846904    0.858909037
H    -13.561879285    -3.575383401    1.494452439
C    -14.329686762    -10.141868689    4.582144003
C    -13.757153587    -9.092109083    3.681448192
C    -14.727497461    -8.593278455    2.617491081
C    -15.766953262    -7.706936829    3.224273209
O    -13.887445143    -10.524385296    5.633294538
O    -15.462930217    -10.689205412    4.070201702
O    -15.736950727    -7.115451228    4.272425358
O    -16.847703844    -7.608992702    2.404960038
H    -13.410017885    -8.236509310    4.315520996
H    -12.834841452    -9.494128478    3.205058727
H    -15.202308732    -9.435986942    2.065472144
H    -14.184284762    -8.005686445    1.829980520
H    -15.876988512    -11.363282733    4.664993263
H    -17.514909565    -6.950789015    2.718032141
