21
-3140.30937
S    -12.347359741    -7.917669223    -16.991614932
O    -12.172423222    -8.770456826    -15.843079804
O    -12.990783358    -8.351943989    -18.188054769
O    -13.042310118    -6.542706964    -16.470316817
O    -10.834598083    -7.369675316    -17.336335718
H    -12.729151815    -6.202133629    -15.595744870
H    -10.129665043    -7.647158714    -16.732359225
C    -10.282729895    -5.013062585    -11.418489943
C    -10.567031959    -6.446348928    -11.748550522
C    -12.049554284    -6.803041465    -11.729217588
C    -12.710140433    -6.375076127    -12.998709328
O    -9.242852736    -4.426915107    -11.555182203
O    -11.368609956    -4.390066482    -10.891480519
O    -12.176446874    -5.957059056    -14.002252638
O    -14.048635319    -6.514924684    -12.927100400
H    -10.124673288    -6.668607424    -12.753740047
H    -9.999835451    -7.091468081    -11.038466709
H    -12.569129438    -6.349054713    -10.849315139
H    -12.190559543    -7.903106553    -11.601453662
H    -11.203894450    -3.441200348    -10.658986601
H    -14.527239262    -6.304227462    -13.772689657
