21
-3140.41970
S    -1.160112157    4.485119307    -2.500042329
O    -0.846211495    3.076520052    -2.604197804
O    -1.025040025    5.371912938    -3.608056334
O    -2.644757380    4.561745222    -1.861416620
O    -0.277276187    5.058395987    -1.241446557
H    -3.226690537    3.761361482    -1.950182052
H    -0.048647882    4.417661241    -0.550777212
C    -3.897638141    1.242927055    -2.561666683
C    -2.630863135    0.754050052    -3.171296554
C    -2.529373423    -0.762896287    -3.249331705
C    -3.355146954    -1.298910980    -4.379002468
O    -4.144399874    2.353098161    -2.139167358
O    -4.850074089    0.289549313    -2.499322024
O    -3.703709127    -0.746127019    -5.387669161
O    -3.662072872    -2.602456802    -4.150787059
H    -2.515848698    1.212823817    -4.188821617
H    -1.755601704    1.174546314    -2.601323479
H    -2.830550954    -1.240008241    -2.288179911
H    -1.468634978    -1.071535220    -3.402562489
H    -5.710528259    0.606141663    -2.116788233
H    -4.213273368    -3.011496613    -4.862870242
