21
-3140.37077
S    -5.609617005    17.003727286    21.468851418
O    -4.476938115    16.276170202    20.993676161
O    -5.507442312    18.274374580    22.123877163
O    -6.673245627    17.211391625    20.228867961
O    -6.518603450    16.010757153    22.387002485
H    -7.136480378    18.060326942    20.192400735
H    -6.729524978    15.106630415    22.024402783
C    -6.336841529    10.298370852    21.756934257
C    -7.761907203    10.757537493    21.686263450
C    -8.200517369    11.580035766    22.894822473
C    -7.666507733    12.971046348    22.788892936
O    -5.653428428    9.890456295    20.857758389
O    -5.852118813    10.362500089    23.025323657
O    -7.260414336    13.516863665    21.784362920
O    -7.700598152    13.618052625    23.968053394
H    -7.891844231    11.347685005    20.741810753
H    -8.416688766    9.864898755    21.562480067
H    -7.869242629    11.106395412    23.852686223
H    -9.311645504    11.617066606    22.968664229
H    -4.909875779    10.066652251    23.103258273
H    -7.353935105    14.558595872    23.930663228
