21
-3140.30329
S    -4.202133827    -1.595399217    -2.052307613
O    -3.908035796    -2.989311594    -2.076270635
O    -5.061147866    -0.953020601    -3.009576005
O    -4.738090114    -1.168760733    -0.568633105
O    -2.780847439    -0.781788746    -2.020230601
H    -4.828954523    -0.218651831    -0.384236953
H    -1.959382376    -1.297386487    -2.058706043
C    -6.859349087    -2.183675165    -5.761805965
C    -8.104834604    -2.675003007    -6.448434828
C    -9.399811311    -2.222677341    -5.782650815
C    -9.767799053    -0.838463831    -6.215903356
O    -5.732519633    -2.372909115    -6.144672709
O    -7.133065777    -1.516330309    -4.629760225
O    -9.332410299    -0.180785654    -7.122577932
O    -10.771202370    -0.359998620    -5.430400795
H    -8.071865656    -2.338771775    -7.514563200
H    -8.056650423    -3.786087315    -6.491220418
H    -9.310144723    -2.256611243    -4.668620920
H    -10.235300022    -2.916575074    -6.023358032
H    -6.327695924    -1.225512420    -4.104357078
H    -11.052353693    0.557583796    -5.663988645
