21
-3140.37798
S    -13.124274881    -23.463258598    4.631376972
O    -11.721741372    -23.163325614    4.545774995
O    -14.145566547    -22.605158515    4.111589725
O    -13.371716767    -24.931146348    3.929496655
O    -13.449171270    -23.838697844    6.172667563
H    -14.238255141    -25.068218837    3.517566258
H    -12.684516152    -23.923966268    6.786524256
C    -8.807935685    -22.269868213    6.163351502
C    -8.989807356    -23.746605149    6.018598210
C    -8.948720172    -24.489024550    7.347582384
C    -10.186968727    -24.259799575    8.157952164
O    -8.278424213    -21.505493187    5.403636739
O    -9.329025378    -21.828598029    7.341739891
O    -11.333738618    -24.137906667    7.806302705
O    -9.890605220    -24.282732869    9.478642145
H    -9.965305053    -23.922353982    5.481464872
H    -8.216466899    -24.142122514    5.322622535
H    -8.048089529    -24.192224466    7.936800826
H    -8.839283165    -25.584969298    7.175680622
H    -9.299976348    -20.846174742    7.442937940
H    -10.673554555    -24.147484552    10.070681164
