21
-3140.30516
S    -15.750345925    -11.270863034    -1.515801155
O    -16.156150448    -11.666777024    -2.839536620
O    -15.326443510    -9.953463190    -1.174085877
O    -16.943240635    -11.675546313    -0.475020648
O    -14.616542018    -12.355227735    -1.056346212
H    -17.097858723    -11.085712062    0.281607447
H    -14.619166492    -13.214612895    -1.513372982
C    -18.193026819    -13.867524458    -4.946411158
C    -19.096534227    -15.072221614    -4.989580103
C    -19.569296405    -15.516008362    -3.608468653
C    -20.545846684    -14.531961412    -3.043682864
O    -17.963312517    -13.121216275    -5.860741590
O    -17.620441817    -13.735055501    -3.737768893
O    -21.205368570    -13.702730378    -3.610849702
O    -20.656265725    -14.704161123    -1.698471608
H    -19.969523249    -14.831210666    -5.644345492
H    -18.554741837    -15.899186289    -5.499051111
H    -18.703713657    -15.633390918    -2.911561655
H    -20.045966524    -16.520135839    -3.654525544
H    -17.084556885    -12.902133392    -3.587589455
H    -21.267517067    -14.059410786    -1.266815657
