21
-3140.29438
S    7.926858423    -9.993911961    17.552426955
O    8.965767309    -10.849971023    17.069332434
O    7.492097082    -8.810241642    16.878015503
O    6.615432569    -10.871242865    17.935647441
O    8.368179646    -9.562634723    19.089263483
H    5.784702565    -10.377938659    18.135636886
H    9.159146825    -9.994251605    19.444882760
C    4.299931505    -9.316471939    19.972307400
C    5.470412393    -8.518302099    20.444383735
C    5.711507292    -7.272199628    19.596865136
C    4.802166602    -6.160992192    20.012506807
O    3.379851998    -9.780110780    20.579511365
O    4.384568647    -9.542771828    18.614380732
O    4.139401543    -6.064720465    21.011542107
O    4.803222431    -5.175412615    19.079840923
H    5.304889494    -8.237335919    21.515495653
H    6.385836676    -9.160830455    20.447338623
H    5.604096008    -7.482005809    18.501542029
H    6.771949442    -6.933966042    19.688304260
H    3.603642741    -10.019191203    18.239138098
H    4.210195246    -4.414773087    19.303818066
