21
-3140.34716
S    -7.522353931    -20.671418422    6.756928906
O    -8.891369383    -20.840136870    6.377605668
O    -6.530179848    -20.144314306    5.880695584
O    -7.409249671    -20.004534531    8.217121197
O    -7.030083347    -22.218624586    7.216289157
H    -6.578726439    -20.177484769    8.752066498
H    -7.675382705    -22.928134281    7.084278522
C    -3.992248767    -20.069024346    12.305258745
C    -3.156953448    -21.014470214    11.494249402
C    -3.936647625    -22.209054455    10.958530448
C    -4.884409677    -21.793481669    9.877368351
O    -3.731860750    -18.933183636    12.597434134
O    -5.130209007    -20.661418781    12.752974022
O    -5.198164849    -20.659691564    9.579515475
O    -5.367109275    -22.855626607    9.224290630
H    -2.693107966    -20.439705777    10.655094686
H    -2.303954895    -21.359109482    12.123337308
H    -4.516418823    -22.708530566    11.774992508
H    -3.247216254    -22.997022472    10.579031739
H    -5.711748529    -20.049954651    13.271826583
H    -5.991918040    -22.643604570    8.459886896
