21
-3140.33907
S    -20.952253772    -8.271955108    -25.298351839
O    -19.969959235    -9.133417661    -25.875882502
O    -21.727951358    -7.332924414    -26.041057728
O    -21.946041191    -9.136634408    -24.342749966
O    -20.175886731    -7.431821020    -24.087957965
H    -22.637488233    -8.649327413    -23.840226055
H    -19.286608133    -7.726528300    -23.841514755
C    -22.520292382    -5.218943821    -22.179270980
C    -23.987407706    -5.138283994    -21.868909983
C    -24.779116592    -6.280850675    -22.501387953
C    -24.468534911    -7.563166850    -21.791544673
O    -21.702682952    -4.344385046    -22.087751881
O    -22.189296205    -6.464951652    -22.584955274
O    -24.348475042    -7.764726613    -20.614478882
O    -24.356901803    -8.589053256    -22.684671761
H    -24.117729791    -5.135916913    -20.758430047
H    -24.376284998    -4.153643538    -22.212976021
H    -24.553880194    -6.365424424    -23.591109963
H    -25.873177618    -6.086919238    -22.437978255
H    -21.249768062    -6.579426202    -22.899862258
H    -24.207075756    -9.471041527    -22.259706899
