21
-3140.33485
S    4.179092660    -15.519928519    13.640125265
O    4.648098680    -14.171562125    13.459445956
O    3.043809351    -16.049945089    12.952548956
O    5.418339892    -16.553149606    13.348743001
O    4.012271795    -15.727089115    15.242089175
H    5.177890965    -17.445783693    13.052120174
H    4.235864726    -14.955580634    15.820794627
C    4.416794026    -9.931214945    14.342628157
C    5.043810035    -11.257796494    14.057887157
C    5.412928338    -12.041636712    15.313567724
C    4.187503507    -12.416620462    16.074141103
O    3.757083577    -9.251588547    13.602641312
O    4.709280501    -9.500862981    15.599639983
O    3.107407571    -11.908640936    16.149083002
O    4.421786040    -13.576467570    16.797472288
H    4.353177056    -11.863921948    13.411686485
H    5.944469356    -11.107032659    13.420134932
H    6.086275648    -11.448340918    15.976872397
H    5.997768055    -12.951095041    15.028461385
H    4.258264418    -8.653227272    15.838086077
H    3.710094114    -13.781971806    17.452732864
