21
-3140.31601
S    -20.744479911    -16.237374321    -7.391395588
O    -19.962244488    -17.442791357    -7.487651813
O    -20.976512360    -15.358476561    -8.489318924
O    -22.200988246    -16.624368780    -6.761541608
O    -20.126487507    -15.394576831    -6.135911579
H    -22.975346266    -16.132378301    -7.081461469
H    -19.557884813    -15.875594962    -5.510535860
C    -19.405774743    -21.007788405    -7.169905274
C    -19.961861186    -22.375276185    -6.872738156
C    -21.402030974    -22.353713137    -6.371047382
C    -22.353171592    -22.119324097    -7.502918196
O    -18.308836937    -20.777966574    -7.609421527
O    -20.280080198    -20.039476360    -6.857200149
O    -22.195043482    -22.299401152    -8.680799177
O    -23.551508350    -21.687661667    -7.023421360
H    -19.879457842    -22.991945210    -7.802446271
H    -19.297333317    -22.870121355    -6.130727098
H    -21.539416950    -21.565710623    -5.590861406
H    -21.664723191    -23.311245219    -5.868998742
H    -20.014194868    -19.105696247    -7.106426263
H    -24.222398998    -21.521599486    -7.728518406
