21
-3140.31517
S    -5.273814114    10.512880625    20.787037810
O    -4.472516835    9.355051853    21.072792635
O    -5.587003461    10.954375042    19.468807738
O    -6.690019125    10.371432980    21.590023453
O    -4.597080041    11.731391168    21.641572830
H    -7.488436495    10.720258919    21.159008903
H    -3.907043300    11.487961319    22.283153356
C    -2.119533333    6.686510544    21.299519764
C    -1.371796951    5.631876691    22.071042801
C    -2.057543454    5.212314860    23.366353715
C    -3.156930679    4.233201936    23.101737070
O    -1.909529400    6.998333613    20.155573873
O    -3.048170030    7.294659226    22.055706458
O    -3.478140159    3.696816946    22.076038523
O    -3.811143305    3.956948437    24.263811214
H    -1.221931582    4.750477401    21.399640973
H    -0.350543124    6.019653902    22.281672291
H    -2.473211181    6.099827777    23.905635167
H    -1.328548314    4.766223108    24.078614220
H    -3.577608761    8.008808431    21.596194630
H    -4.559267990    3.321757084    24.155953704
