21
-3140.34150
S    -11.540368893    -6.568866276    -22.371041851
O    -10.129487482    -6.325039969    -22.398403875
O    -12.398276720    -6.271619992    -23.484022726
O    -11.826212525    -8.112903836    -21.950428329
O    -12.101485277    -5.806102544    -21.030987296
H    -12.247506672    -8.684719433    -22.634223048
H    -11.432866799    -5.569700697    -20.366014901
C    -16.101360753    -8.957922010    -23.382975746
C    -15.740883879    -8.640347644    -24.801669457
C    -14.239996034    -8.477113161    -25.018769464
C    -13.558491178    -9.794609945    -24.844715991
O    -17.197857307    -8.992051355    -22.892941054
O    -14.999066738    -9.246869204    -22.643256877
O    -13.831423019    -10.860002936    -25.324186134
O    -12.454020909    -9.680978017    -24.042742210
H    -16.151993106    -9.443946016    -25.461925862
H    -16.277506055    -7.711372468    -25.106796383
H    -13.821226567    -7.693236711    -24.332830668
H    -14.026506859    -8.085913368    -26.039697338
H    -15.198481423    -9.452801201    -21.695042056
H    -11.972436261    -10.532058360    -23.899900418
