21
-3140.30755
S    5.728388276    -14.653740577    13.533732152
O    6.771700757    -14.564420021    12.563127187
O    4.364093988    -14.884485029    13.164690651
O    6.129885498    -15.852522737    14.610829549
O    5.822259419    -13.418197203    14.573629036
H    5.722710678    -16.717616633    14.481816480
H    6.692808371    -13.221887068    15.003527650
C    8.255176615    -16.190850961    18.060161244
C    7.247262275    -15.322808664    17.379002040
C    7.115719772    -13.922604889    17.971587523
C    7.925454405    -12.935555988    17.192070485
O    8.363170534    -17.386101340    17.980593200
O    9.114805993    -15.469545080    18.824905579
O    8.027492433    -12.838450339    15.987385344
O    8.568545305    -12.070345134    17.998409568
H    7.507553232    -15.283465055    16.285515940
H    6.261275067    -15.846578061    17.382681082
H    7.411229785    -13.908033768    19.049097469
H    6.049200912    -13.593508985    17.961634905
H    9.808406532    -16.019185608    19.269142779
H    9.108708326    -11.391855124    17.511805444
