21
-3140.52720
S    -12.978834582    -8.805311600    -27.250847814
O    -12.414114151    -8.035580564    -28.309922429
O    -14.035784204    -8.299713112    -26.394199170
O    -13.461809225    -10.245415303    -27.786018168
O    -11.762796161    -9.291691728    -26.265582736
H    -14.262303187    -10.657804414    -27.324815914
H    -11.011662040    -9.752657544    -26.665820013
C    -16.260748159    -10.719161958    -25.577518752
C    -17.428024092    -11.430891643    -24.960679205
C    -18.209381852    -10.589665927    -23.958409545
C    -19.236337520    -9.750299742    -24.653626093
O    -15.541036753    -11.226737629    -26.419451677
O    -16.056847874    -9.496188764    -25.107839294
O    -19.428260630    -9.602514202    -25.830182592
O    -20.021817672    -9.131961323    -23.732301897
H    -18.096897655    -11.778045608    -25.789856220
H    -17.058486196    -12.367649831    -24.484429869
H    -17.530721472    -9.925003782    -23.367568429
H    -18.703170717    -11.233929269    -23.196100238
H    -15.277447118    -8.987081457    -25.544773746
H    -20.710100020    -8.542500625    -24.128720336
