21
-3140.33562
S    -12.344230328    -3.795139764    -17.258425610
O    -12.139014930    -4.545119566    -18.469889499
O    -13.451176211    -2.919897350    -17.054602327
O    -12.329627798    -4.836220068    -15.998717511
O    -10.939188931    -3.011355273    -16.986439409
H    -12.952453758    -4.666191634    -15.272031542
H    -10.184509165    -3.262518611    -17.553384321
C    -12.678403497    -6.949911391    -21.085779209
C    -13.584240901    -7.893217554    -21.832163030
C    -15.051503776    -7.769439685    -21.433001215
C    -15.669376905    -6.560162305    -22.062735281
O    -11.519147456    -6.741898026    -21.336765011
O    -13.314278248    -6.366234913    -20.058951103
O    -15.315077673    -5.942427381    -23.031096153
O    -16.805628973    -6.216709798    -21.398235567
H    -13.457082458    -7.707780497    -22.927290204
H    -13.221874331    -8.931389676    -21.664378581
H    -15.159706394    -7.716851356    -20.321155357
H    -15.624504392    -8.672902613    -21.737263415
H    -12.776593750    -5.707611833    -19.526894370
H    -17.252051327    -5.415880754    -21.766364501
