21
-3140.42320
S    -0.879825560    19.449659871    25.017246210
O    0.425786560    19.081895188    25.468797706
O    -1.378638096    19.085936324    23.713634859
O    -1.974229287    18.974784080    26.115099180
O    -1.003374098    21.074409273    25.184373233
H    -2.944043265    19.004072956    25.877232754
H    -0.396855666    21.493186332    25.817014362
C    -4.812565199    18.565968021    22.582018340
C    -6.081344850    18.009446514    23.180264070
C    -5.821307845    16.997634328    24.295821654
C    -4.812325514    17.539939397    25.258684097
O    -4.738528471    19.438006176    21.759940872
O    -3.733709465    17.950171745    23.098346890
O    -4.568447107    18.701941421    25.512929204
O    -4.156819546    16.548838666    25.899004615
H    -6.678658096    18.870204270    23.564208380
H    -6.696488119    17.553686648    22.374298073
H    -5.446600359    16.034982459    23.869409723
H    -6.761595021    16.741770458    24.830308208
H    -2.852801807    18.431645750    22.996321057
H    -3.403875711    16.866394218    26.469387152
