21
-3140.18626
S    -15.041465360    -8.862533572    -16.757558688
O    -14.135813374    -9.775133780    -17.383598426
O    -15.413668111    -7.602441681    -17.317585768
O    -16.438372476    -9.651358500    -16.408776794
O    -14.492823353    -8.655273138    -15.224904405
H    -17.253082345    -9.123767554    -16.420980370
H    -14.034528059    -9.411295535    -14.823974575
C    -9.790125768    -6.562558505    -13.019794197
C    -10.049846732    -6.524565124    -14.494454888
C    -11.528536659    -6.531757288    -14.864100350
C    -12.144511571    -5.186046547    -14.632255405
O    -8.780291206    -6.252504849    -12.446391103
O    -10.853468494    -7.052367607    -12.327707780
O    -11.623481428    -4.172155195    -14.248407370
O    -13.462915635    -5.223526482    -14.942844035
H    -9.549881647    -5.612724911    -14.910898784
H    -9.527265955    -7.387825085    -14.966360640
H    -12.094601868    -7.301774179    -14.284126927
H    -11.670272091    -6.824447634    -15.929777301
H    -10.714305154    -7.050904679    -11.347376342
H    -13.930208428    -4.362106059    -14.814907705
