21
-3140.35967
S    1.382562012    -13.617099347    11.945961289
O    1.806963328    -14.901113500    11.444087039
O    1.287587920    -12.441573045    11.142739958
O    -0.068964187    -13.802793778    12.678224971
O    2.316493842    -13.336140067    13.256037802
H    -0.691830387    -13.059101575    12.621390873
H    2.731025205    -14.131794513    13.656532390
C    3.772705478    -17.337651453    13.625774313
C    4.304499287    -17.415101508    15.028491463
C    3.420370263    -16.721645528    16.059346204
C    2.271340355    -17.595921272    16.455509573
O    3.976277862    -18.110979990    12.731106182
O    3.030752673    -16.222309473    13.434766621
O    2.051943953    -18.741311480    16.169492221
O    1.430230369    -16.904334571    17.270075022
H    4.440159464    -18.494944529    15.291977464
H    5.328444555    -16.978378755    15.039003861
H    3.034230309    -15.746786104    15.677887205
H    4.006986351    -16.453207709    16.967248521
H    2.636667236    -16.119232050    12.510610954
H    0.647837141    -17.428931680    17.571156523
