21
-3140.36544
S    -1.582847144    3.266201618    -2.122494826
O    -0.679679059    2.142422540    -2.297454054
O    -1.627461068    4.341737735    -3.052753267
O    -3.061392362    2.640707420    -1.891750468
O    -1.282411617    3.833240602    -0.617858918
H    -3.418939396    2.031643987    -2.596894805
H    -0.763045425    3.246881023    -0.039788732
C    -1.264712386    -0.433828471    -4.779861343
C    -2.492974762    -1.124811573    -5.317610949
C    -3.501846161    -1.502772170    -4.233854877
C    -3.798734895    -0.316425488    -3.370017342
O    -0.277543179    -0.155663077    -5.403878955
O    -1.411988033    -0.151184391    -3.473865645
O    -3.880024051    0.847987044    -3.702872215
O    -4.035666100    -0.684439339    -2.093336776
H    -2.962365893    -0.439108786    -6.063554411
H    -2.183393138    -2.024496513    -5.892540971
H    -3.108282275    -2.338427386    -3.606850047
H    -4.443928799    -1.883484025    -4.686403090
H    -0.831451243    0.588137552    -3.098300803
H    -4.120947000    0.078619335    -1.462615763
