21
-3140.53035
S    -10.990401141    -4.334878538    -18.382765370
O    -10.549651851    -4.723467091    -17.080556628
O    -10.591009157    -5.049003165    -19.581112718
O    -12.588864566    -4.194140976    -18.439464940
O    -10.547403520    -2.766283066    -18.569844999
H    -13.041151913    -4.442684773    -19.310946177
H    -10.407150995    -2.257813133    -17.754584847
C    -13.152334512    -5.450665008    -21.749755981
C    -13.935831669    -5.916715644    -22.945042188
C    -13.397563776    -7.222581090    -23.519767319
C    -13.599218048    -8.349530545    -22.554846069
O    -13.632644521    -4.834979243    -20.817710151
O    -11.856378392    -5.726960443    -21.840728118
O    -13.849654753    -8.304153818    -21.380908547
O    -13.457413768    -9.539463789    -23.195458388
H    -15.006894983    -6.023954145    -22.650460946
H    -13.917138980    -5.115883636    -23.718441365
H    -12.306072680    -7.135568600    -23.750139222
H    -13.878895713    -7.457340508    -24.495440807
H    -11.300545742    -5.471652863    -21.015259380
H    -13.548832846    -10.324025117    -22.599424012
