21
-3140.38507
S    -22.502735884    -8.215457753    -26.788349971
O    -22.976272348    -9.058889270    -27.846236969
O    -22.753226162    -6.810574761    -26.736093514
O    -22.942892753    -8.870914192    -25.363249191
O    -20.881054912    -8.477977641    -26.690573879
H    -22.737250668    -8.368793071    -24.527112272
H    -20.528714868    -9.203171657    -27.227853671
C    -23.520370807    -5.610445143    -20.954588973
C    -22.970536248    -6.849164968    -20.311706415
C    -23.702893804    -8.120466245    -20.729485076
C    -23.461864417    -8.403956248    -22.176871046
O    -23.009179918    -4.525454592    -21.007672273
O    -24.749927339    -5.832367233    -21.489278584
O    -22.668325094    -7.851414454    -22.908937189
O    -24.238327005    -9.408796234    -22.624146771
H    -21.883838705    -6.920160738    -20.568631142
H    -23.004877507    -6.723179024    -19.205604450
H    -24.801907229    -8.030785460    -20.540415535
H    -23.377069749    -8.989823398    -20.115010375
H    -25.124184523    -5.043504811    -21.957815123
H    -24.124592958    -9.611843005    -23.599380331
