21
-3140.22416
S    -2.111712893    -15.494752318    11.931880614
O    -1.157727933    -16.456941531    11.479712084
O    -3.403602951    -15.310589361    11.349128372
O    -2.344829208    -15.729520814    13.547271278
O    -1.350431726    -14.051011152    12.037742115
H    -3.222164323    -15.515378313    13.897501558
H    -0.451615306    -14.064154431    12.419297200
C    2.570697064    -14.106478516    13.811386510
C    2.443215602    -15.228094691    14.792712523
C    1.324443866    -16.212826282    14.478746143
C    1.717732024    -17.138039984    13.365352854
O    3.563834110    -13.523460417    13.475812391
O    1.357855945    -13.688397041    13.332812910
O    2.632475355    -17.031630035    12.592913556
O    0.890962842    -18.209971497    13.348707384
H    3.426731650    -15.760963587    14.841849644
H    2.292076091    -14.788296295    15.806337973
H    0.376120620    -15.690571510    14.208886161
H    1.053639980    -16.805526083    15.382575409
H    1.441461242    -12.915827054    12.716249973
H    1.003955121    -18.786268708    12.550074130
