21
-3140.49368
S    0.481247383    -0.253756263    -3.607020090
O    1.558967587    -0.679825613    -4.433674229
O    -0.533985324    0.642316983    -4.133045276
O    -0.320367132    -1.505721126    -2.963774096
O    1.060605575    0.360320804    -2.207545837
H    -1.184827833    -1.758489352    -3.411447786
H    0.841545626    -0.122829501    -1.390979408
C    -4.621281986    -3.952804216    -5.090024419
C    -4.406753463    -3.015048221    -6.241070911
C    -4.449597096    -1.545029404    -5.837621756
C    -3.204284290    -1.163722555    -5.093565480
O    -4.207654924    -5.074462762    -4.973094999
O    -5.435770760    -3.408423948    -4.148165978
O    -2.534518708    -1.913557782    -4.410046881
O    -2.893437623    0.113856853    -5.280803635
H    -3.429387007    -3.263586274    -6.720332806
H    -5.179153514    -3.225622495    -7.016437681
H    -5.337469879    -1.329804064    -5.193731835
H    -4.579182975    -0.892495096    -6.730820061
H    -5.582888024    -4.000308973    -3.368518568
H    -2.018714504    0.424657895    -4.840586230
