21
-3140.25247
S    -22.091242909    -10.377211343    -17.291011974
O    -21.473817164    -10.718976610    -18.533346162
O    -23.415197527    -10.783285874    -16.931633673
O    -21.091246672    -10.901520389    -16.080951960
O    -21.919632667    -8.783272191    -17.027134290
H    -21.512847726    -11.296927408    -15.305625847
H    -21.046018637    -8.439743782    -16.742846552
C    -15.454848822    -8.145835074    -16.436244418
C    -16.407550052    -9.041854910    -17.168254979
C    -17.831759476    -9.000945430    -16.624139557
C    -18.475748951    -7.695978883    -16.954837697
O    -14.339099190    -7.841850573    -16.760529366
O    -15.990770690    -7.689101874    -15.273391378
O    -18.130632940    -6.825196641    -17.700845446
O    -19.655164018    -7.561580647    -16.259037948
H    -16.393044086    -8.760661329    -18.251679996
H    -16.010882520    -10.083201620    -17.134868235
H    -17.845089519    -9.164058373    -15.517665729
H    -18.438190432    -9.843121214    -17.036140983
H    -15.390624885    -7.075620254    -14.778502571
H    -20.070681127    -6.665966055    -16.357079018
