21
-3140.33827
S    -11.925076538    -2.598838453    -8.294015054
O    -11.195739815    -1.448275336    -7.865004254
O    -12.811174481    -2.583082890    -9.420264277
O    -10.894502311    -3.848057971    -8.530337599
O    -12.726629461    -3.171610693    -6.987071800
H    -11.132759231    -4.485203870    -9.226398821
H    -12.363382400    -2.949773613    -6.113601491
C    -12.151892582    -1.437696282    -13.108412160
C    -12.911489924    -0.756717439    -12.018187170
C    -12.108048171    0.300584087    -11.270138115
C    -12.020548496    1.562958498    -12.064700653
O    -12.589733782    -2.093608709    -14.016867465
O    -10.805306066    -1.276001980    -12.977207442
O    -12.557852871    1.850792402    -13.101191198
O    -11.210456790    2.457261633    -11.436204447
H    -13.839438268    -0.312954382    -12.454378948
H    -13.279914198    -1.540421050    -11.302487327
H    -11.080183667    -0.065041453    -11.023965007
H    -12.563025885    0.512960301    -10.275323899
H    -10.290769172    -1.696408132    -13.708377432
H    -11.098967162    3.306533898    -11.928731294
