21
-3140.34961
S    -4.146423553    18.754399472    24.698076257
O    -3.656775726    17.992192211    25.801540750
O    -5.473117327    18.592893630    24.172789012
O    -3.963014068    20.353055272    24.995131489
O    -3.072641971    18.596128672    23.474734717
H    -4.468902755    20.961218967    24.430434331
H    -2.378148196    17.921218360    23.577307936
C    -7.649544573    15.557995486    21.758457163
C    -7.169706460    16.604598446    22.707434799
C    -7.229275707    16.196294309    24.174741558
C    -6.055313902    15.347220075    24.542914995
O    -7.600598230    15.574961616    20.555851730
O    -8.221248466    14.503448275    22.400055332
O    -5.061251065    15.096841505    23.911297437
O    -6.214844714    14.853722868    25.799730239
H    -6.122093958    16.895164419    22.429398435
H    -7.753522753    17.540446450    22.543825453
H    -8.179568613    15.669662113    24.420056814
H    -7.225015449    17.110798486    24.820984269
H    -8.529754741    13.791908843    21.786314639
H    -5.441202031    14.329765063    26.120631016
