21
-3140.32871
S    2.345513606    -14.876044787    11.149171531
O    2.936483031    -16.159481362    10.896282608
O    1.979878180    -13.960798089    10.111853980
O    0.997687922    -15.094822458    12.065424736
O    3.280546667    -14.131526919    12.249623996
H    0.256206090    -14.492707452    11.899240207
H    3.670709610    -14.699844902    12.953367672
C    4.531585312    -19.964422331    13.178837935
C    5.543481121    -18.883225980    12.947223553
C    4.941475264    -17.483935614    12.900381371
C    4.673706184    -16.977813127    14.274152362
O    4.718728486    -21.151940321    13.132564183
O    3.302714359    -19.462674413    13.453879833
O    4.788873097    -17.505131641    15.343065538
O    4.269082965    -15.661569366    14.225377024
H    6.323750463    -18.957875351    13.743786776
H    6.078865406    -19.103543504    11.993445401
H    3.987630887    -17.486673766    12.296507589
H    5.600240749    -16.780276449    12.343423994
H    2.619970848    -20.162428089    13.613953636
H    4.020488258    -15.284520215    15.101587167
