21
-3140.29055
S    3.860045129    -15.410744546    14.820067931
O    3.780914928    -16.826299958    15.010428707
O    3.705373844    -14.774733921    13.549877280
O    2.930460616    -14.631435253    15.899197230
O    5.330773816    -14.954235206    15.439105080
H    2.963303862    -13.645528221    15.882844326
H    5.896698040    -15.662200064    15.775983261
C    6.368127535    -9.776426646    17.488717864
C    6.527849417    -10.968228388    16.597120045
C    5.290407081    -11.855786077    16.521745422
C    4.301694668    -11.301775321    15.550846656
O    7.225038868    -9.011258994    17.842801514
O    5.083640199    -9.623249976    17.901333919
O    4.416329498    -10.441721186    14.726311265
O    3.098888146    -11.958138468    15.682905697
H    6.814691556    -10.607252242    15.575847085
H    7.407229205    -11.557374243    16.946638298
H    4.817447576    -11.977808711    17.525798160
H    5.576422081    -12.893718985    16.213605249
H    4.946958667    -8.829775838    18.478904490
H    2.400950087    -11.640047198    15.057607832
