21
-3140.53771
S    -13.867615671    -6.318126683    -15.099969384
O    -14.839512265    -6.934203508    -15.946451969
O    -14.243626385    -5.495423480    -13.965441180
O    -12.813271522    -7.397844606    -14.548012673
O    -12.902258097    -5.421714652    -16.073661330
H    -12.466268105    -7.263554035    -13.607984232
H    -12.870708685    -5.682773446    -17.009291135
C    -9.419873765    -6.322877390    -9.993624473
C    -10.710414149    -6.947978444    -9.561699093
C    -11.931455065    -6.062592425    -9.783658037
C    -12.393026923    -6.127734196    -11.208733014
O    -8.367031403    -6.872382424    -10.177640029
O    -9.532156992    -4.976679034    -10.141681275
O    -12.028344000    -6.949149398    -12.029765835
O    -13.290296495    -5.188649600    -11.482360343
H    -10.827940690    -7.918815653    -10.109417297
H    -10.622598584    -7.229201439    -8.487173362
H    -11.724705705    -5.000997102    -9.499920347
H    -12.770330089    -6.369891115    -9.118895349
H    -8.689519187    -4.539107362    -10.421821107
H    -13.671733079    -5.216556150    -12.434812289
