21
-3140.31158
S    -13.769140351    -7.048187706    -12.732984491
O    -14.146844506    -8.037041772    -13.699324734
O    -13.589519458    -5.673146530    -13.068849010
O    -14.701394316    -7.182570955    -11.416741017
O    -12.363524088    -7.615083316    -12.053157509
H    -14.473849781    -6.653607235    -10.609791401
H    -11.906886521    -8.317931534    -12.534203008
C    -10.825568940    -7.718247952    -8.126207172
C    -11.946896768    -8.076909394    -9.047748768
C    -13.300501868    -8.238256968    -8.361121390
C    -13.961117275    -6.906290634    -8.188482872
O    -9.654326091    -7.650133852    -8.389528483
O    -11.268870010    -7.454968543    -6.870628218
O    -14.156695370    -6.063782675    -9.040008577
O    -14.376003637    -6.707134612    -6.924886441
H    -11.994189724    -7.303829571    -9.863124596
H    -11.674851363    -9.011318103    -9.593057247
H    -13.193009974    -8.758290977    -7.379226847
H    -13.969299251    -8.890959715    -8.972087380
H    -10.550305512    -7.196684897    -6.240032198
H    -14.809903586    -5.824196570    -6.777767886
