21
-3140.49692
S    -21.693162310    -17.037125499    -5.607791297
O    -22.931292227    -17.709765379    -5.985996350
O    -21.679146013    -15.668765132    -5.220609675
O    -20.997314988    -17.990254299    -4.481664668
O    -20.646463687    -17.325166984    -6.827136038
H    -20.816394836    -18.911907711    -4.771545332
H    -20.439711852    -18.277296295    -6.962297783
C    -19.460740574    -22.658152114    -6.064492409
C    -20.205409008    -22.486535383    -7.355038215
C    -21.665743841    -22.095576875    -7.161835370
C    -21.791906375    -20.670208324    -6.723189437
O    -18.281832934    -22.530839394    -5.874868583
O    -20.290177336    -23.045431289    -5.059378139
O    -20.872460035    -19.966646365    -6.326032405
O    -23.030279981    -20.220349089    -6.816554272
H    -19.670218681    -21.722780640    -7.970340148
H    -20.133376010    -23.437066589    -7.933120804
H    -22.162824756    -22.756169922    -6.406380894
H    -22.249173192    -22.258271164    -8.096985738
H    -19.824214450    -23.186508740    -4.196961924
H    -23.155810335    -19.227271129    -6.510963198
