21
-3140.50735
S    2.836855618    -15.869372745    10.390582098
O    1.787513715    -15.866577884    9.421165082
O    2.610764499    -15.514671278    11.780036605
O    3.640206030    -17.259477397    10.396867423
O    3.998706468    -14.859176511    9.822479363
H    4.175522515    -17.456492921    11.232658717
H    3.869724657    -14.478665676    8.940132894
C    7.751175389    -17.681215424    12.905916713
C    7.218230382    -17.907154554    14.291081117
C    6.166383520    -16.875153969    14.688580096
C    5.086836624    -16.798632323    13.648096244
O    8.324145195    -18.465960627    12.200310131
O    7.536673693    -16.400937833    12.502022573
O    4.989221023    -17.542529472    12.689731241
O    4.223113996    -15.821073408    13.895788848
H    6.792360395    -18.938642880    14.333681090
H    8.065730312    -17.901601435    15.012041312
H    6.626749444    -15.863869878    14.804027291
H    5.724687810    -17.111706449    15.680412946
H    7.792740327    -16.233624929    11.561270170
H    3.530381349    -15.657157653    13.155315103
