21
-3140.42444
S    -10.918652114    -6.805743565    -9.070977626
O    -9.899549726    -6.522351357    -10.025746368
O    -12.090637861    -5.978035676    -8.888251860
O    -11.424300385    -8.327940423    -9.187605760
O    -10.183091136    -6.904440253    -7.583750546
H    -12.218583210    -8.554850200    -8.596955730
H    -9.296436150    -7.295446929    -7.550003197
C    -12.029088164    -8.374608877    -4.780679620
C    -13.465065380    -8.783883465    -4.595817205
C    -14.450072350    -7.899694996    -5.364054388
C    -13.943746838    -7.715757796    -6.768833313
O    -11.054384269    -8.924962744    -4.343894284
O    -11.938171226    -7.264298245    -5.545743637
O    -13.424689192    -8.594570422    -7.434114942
O    -14.132082425    -6.478436330    -7.218839618
H    -13.556808363    -9.844780013    -4.936454097
H    -13.708832375    -8.794548685    -3.511695392
H    -14.558150102    -6.905968826    -4.870216215
H    -15.464467014    -8.348638244    -5.375886558
H    -11.043792713    -7.065053604    -5.929644223
H    -13.514211533    -6.204233323    -7.979750190
