21
-3140.31593
S    2.000351018    9.276590427    29.245099706
O    1.603987388    7.932842716    28.968770446
O    1.624070499    10.398374539    28.437593565
O    1.656207666    9.653748097    30.798517380
O    3.638709093    9.287948494    29.361777435
H    1.896152334    10.556980680    31.078446561
H    4.097674807    8.434704110    29.340814602
C    5.147206439    12.512606623    26.025616465
C    3.857592552    13.078605880    26.532361387
C    3.483832634    12.620530459    27.936212190
C    4.110911630    13.475868921    28.980994501
O    5.794455586    12.901091269    25.088922831
O    5.544076843    11.416348149    26.724128927
O    4.941507562    14.338114951    28.876119181
O    3.595367711    13.173743642    30.210731284
H    3.918793672    14.193748001    26.479993561
H    3.050646398    12.794290746    25.815364121
H    3.778762478    11.550730105    28.103887067
H    2.372504492    12.595296502    28.065031325
H    6.401083469    11.040535405    26.405845237
H    3.996105871    13.702265466    30.940848126
