21
-3140.35494
S    -9.870932710    -3.852931657    -21.758057657
O    -10.511449866    -5.133791109    -21.697412702
O    -8.565552284    -3.652331921    -22.300426864
O    -10.868592896    -2.810539572    -22.532215793
O    -9.943449950    -3.220179855    -20.251558335
H    -10.453917795    -2.058176804    -22.986847058
H    -10.558828898    -3.636771966    -19.624292564
C    -13.040901108    -8.190266084    -23.405288898
C    -12.238582319    -6.946934889    -23.600176282
C    -11.172710038    -7.060181558    -24.683520608
C    -11.790390434    -7.013711354    -26.043687696
O    -14.100872296    -8.306976009    -22.848504864
O    -12.417200421    -9.286625690    -23.918569258
O    -12.931613588    -6.803048868    -26.357669093
O    -10.843672669    -7.236200131    -26.996272691
H    -12.935438622    -6.100735240    -23.816279564
H    -11.761974765    -6.675609371    -22.619614391
H    -10.577946460    -7.998963404    -24.566631053
H    -10.421752622    -6.243752718    -24.582617657
H    -12.939241404    -10.119435787    -23.811358670
H    -11.204337764    -7.245362591    -27.916308924
