21
-3140.48727
S    -11.872723283    -25.821187106    6.618193319
O    -10.649371517    -26.546463652    6.906902336
O    -12.273261644    -25.544525332    5.274542269
O    -13.127813603    -26.590068390    7.329708534
O    -11.811930657    -24.466272136    7.484075466
H    -14.010061858    -26.385752547    6.971900838
H    -10.902916467    -24.182955957    7.816354425
C    -7.438371134    -21.620432283    9.116388842
C    -6.952451184    -22.257192692    7.848276489
C    -6.870285986    -23.777987896    7.930914887
C    -8.235665219    -24.390153330    7.838443676
O    -8.024882705    -20.579398873    9.238246941
O    -7.082938597    -22.351381269    10.206009543
O    -9.283468167    -23.824408421    8.083387674
O    -8.180113563    -25.653603383    7.429570498
H    -7.629253167    -21.944150763    7.016423946
H    -5.955188587    -21.828751115    7.596753301
H    -6.383289580    -24.106270822    8.882184681
H    -6.216098009    -24.184043524    7.126329393
H    -7.399250869    -21.963450518    11.059589989
H    -9.089617297    -26.099773763    7.270047925
