21
-3140.38028
S    -4.170987940    -16.428189203    10.310538248
O    -4.154133460    -16.491800321    8.889451164
O    -5.181019233    -15.676286018    11.030698411
O    -4.211940454    -17.937450242    10.941968905
O    -2.735064991    -15.949228569    10.896504869
H    -4.598489523    -18.012962005    11.831748790
H    -2.513583928    -14.975117438    10.898380172
C    -5.056523944    -12.043019859    11.635551123
C    -3.921233411    -11.095183568    11.934660976
C    -2.885978649    -11.685480233    12.893557581
C    -2.442650402    -13.022442792    12.385072301
O    -6.066597742    -11.785854248    11.040297211
O    -4.785645717    -13.263823653    12.129725210
O    -2.232040638    -13.342980632    11.231943223
O    -2.249799092    -13.903084431    13.388123088
H    -3.441163884    -10.829668161    10.961436337
H    -4.331332818    -10.143472434    12.336488161
H    -3.316054905    -11.790066406    13.917987548
H    -2.009727627    -11.009690776    12.999001166
H    -5.292565624    -14.046468979    11.745168932
H    -2.088835752    -14.835350993    13.075743184
