21
-3140.34199
S    -9.639148897    -2.270313292    -13.169497070
O    -8.578350516    -2.133617606    -12.225588834
O    -9.585638817    -1.753819317    -14.515927033
O    -10.069864265    -3.836954938    -13.332119900
O    -10.987585283    -1.692865467    -12.443807103
H    -10.535248378    -4.062424991    -14.168348140
H    -10.931074623    -1.512808819    -11.490342650
C    -10.486579767    -3.902806499    -17.421582851
C    -11.505135109    -4.876954684    -17.942208820
C    -12.756845883    -4.975749694    -17.076917371
C    -13.535557423    -3.696220752    -17.136597360
O    -9.460831198    -3.585064796    -17.959204412
O    -10.841685884    -3.405053699    -16.216594500
O    -13.514077040    -2.835369628    -17.973978738
O    -14.373327050    -3.615218113    -16.068899170
H    -11.776510035    -4.563824825    -18.982196228
H    -11.025355230    -5.874591582    -18.051219540
H    -12.496461557    -5.212985497    -16.019289123
H    -13.406449530    -5.814205804    -17.413910133
H    -10.280196747    -2.630735288    -15.886060690
H    -14.904484916    -2.781653958    -16.043261646
