21
-3140.22103
S    -24.077187838    -10.903375348    -20.815934616
O    -23.381595050    -11.660455435    -19.821319089
O    -25.386868893    -11.218077546    -21.292453766
O    -24.116694396    -9.329960878    -20.353573613
O    -23.055640223    -10.766692021    -22.091906723
H    -24.833674896    -8.786949372    -20.718952549
H    -22.125013441    -10.991738110    -21.929760474
C    -21.797773199    -13.334861591    -13.658800488
C    -22.950984307    -12.930586495    -14.526016722
C    -22.638135423    -11.763837286    -15.455995281
C    -21.706093219    -12.189021753    -16.550664294
O    -21.688056302    -14.341572328    -13.011088144
O    -20.823272498    -12.388055826    -13.639027163
O    -21.345368970    -13.296984637    -16.845650322
O    -21.268789457    -11.098238167    -17.230453119
H    -23.269368376    -13.824088741    -15.120638167
H    -23.818576066    -12.685205364    -13.872682949
H    -22.194589854    -10.906161987    -14.895871066
H    -23.569227088    -11.360292630    -15.915044919
H    -20.031478099    -12.650646717    -13.106569406
H    -20.754281410    -11.325425979    -18.043336904
