21
-3140.32207
S    -13.553892797    -6.680849713    -12.104023853
O    -14.899751023    -6.342407960    -12.444463773
O    -12.621415758    -5.709798161    -11.579563832
O    -13.546331223    -7.963506627    -11.113079070
O    -12.880201403    -7.374085289    -13.422888835
H    -13.019531727    -7.933012009    -10.284687409
H    -13.443979952    -7.944966141    -13.967014250
C    -9.795737420    -7.337389448    -10.530813254
C    -9.498085062    -8.353448876    -9.458202996
C    -9.897374426    -7.875067668    -8.068766517
C    -11.373265191    -7.647353930    -7.965100439
O    -9.461192473    -7.412914197    -11.682267591
O    -10.511524004    -6.311247883    -10.036964090
O    -12.262601111    -7.868384507    -8.749109328
O    -11.671213318    -7.160376931    -6.735927288
H    -10.036668848    -9.293760516    -9.723839058
H    -8.417730195    -8.614556354    -9.489130891
H    -9.368686787    -6.920729112    -7.818002221
H    -9.573525759    -8.598900438    -7.287488383
H    -11.088725919    -5.831231566    -10.716015253
H    -12.627475763    -6.936838018    -6.608881260
