21
-3140.48085
S    -14.944195579    -23.550246435    -0.486221243
O    -14.701907164    -22.459591478    -1.376795220
O    -14.400749112    -24.871389430    -0.742100896
O    -14.519383412    -23.167234025    1.017254641
O    -16.567686042    -23.671400847    -0.327155415
H    -13.793233688    -23.724161694    1.440368195
H    -17.071027121    -22.847163144    -0.446938306
C    -10.119911546    -24.493084669    3.677081656
C    -9.650987219    -25.111759719    2.391547906
C    -10.602019124    -26.191718956    1.883255027
C    -11.864415704    -25.578371724    1.352872794
O    -10.131678118    -23.332254382    3.981683553
O    -10.500746358    -25.454697927    4.559590076
O    -12.488448708    -24.681049206    1.884110464
O    -12.241370361    -26.136513011    0.207578358
H    -9.518544493    -24.308050862    1.630866009
H    -8.636168946    -25.543251625    2.554022489
H    -10.862623810    -26.908598598    2.700203409
H    -10.110257127    -26.810353132    1.098616883
H    -10.831504195    -25.091777150    5.418397627
H    -13.085387750    -25.733194776    -0.215212462
