21
-3140.31612
S    2.847886397    14.949345703    30.899076299
O    4.123380172    15.464914615    30.520826824
O    1.635645560    15.227731017    30.185001748
O    2.931390909    13.317985139    31.028962317
O    2.633497969    15.315473789    32.481258868
H    2.092859653    12.832081412    30.964361191
H    3.424187649    15.572573873    32.984731423
C    2.232278866    16.838284204    26.664566916
C    1.044479034    16.072061717    27.155938686
C    0.265001152    16.762264092    28.268461804
C    -0.695224563    17.762616951    27.723901751
O    2.918238498    16.574423986    25.710652247
O    2.523489779    17.911537713    27.443267186
O    -0.879195349    18.120044770    26.590132389
O    -1.448255376    18.283355891    28.733597119
H    0.380547857    15.854366584    26.284553889
H    1.403239465    15.077495932    27.516696808
H    0.954331649    17.250842293    29.004389360
H    -0.268802843    16.012402031    28.901463057
H    3.320865388    18.410455149    27.135020601
H    -2.091495721    18.968868214    28.432956503
