21
-3140.45935
S    -12.903442216    -26.025632321    7.520580820
O    -11.980557870    -26.631500909    8.444520147
O    -13.337418949    -26.663129164    6.315762044
O    -14.266103984    -25.654147612    8.367444016
O    -12.359233987    -24.535092775    7.212355807
H    -15.110102490    -25.742523467    7.901411264
H    -12.026419680    -24.014510265    7.996773301
C    -8.309871693    -24.598469062    9.863583678
C    -9.537787975    -25.423928216    9.658945881
C    -10.621919205    -25.207089544    10.708845186
C    -11.299806947    -23.890482605    10.522110902
O    -7.314530708    -24.578119896    9.189027248
O    -8.413565985    -23.803740632    10.961349161
O    -11.609326502    -23.331607792    9.489836426
O    -11.601705265    -23.316044978    11.704112733
H    -9.936352789    -25.233258697    8.629736057
H    -9.252879437    -26.504567085    9.626012798
H    -10.206820378    -25.295454909    11.739767154
H    -11.390942109    -26.022518978    10.623938624
H    -7.620094370    -23.233186207    11.115336857
H    -12.068201508    -22.443866587    11.619331674
