21
-3140.40056
S    -9.771966825    -3.589480925    -17.667576686
O    -9.103434881    -3.015756784    -16.541448057
O    -10.053497588    -5.003242561    -17.757052737
O    -11.150213481    -2.797104633    -17.966008305
O    -8.913685045    -3.169131780    -18.998270762
H    -11.685630466    -3.079270025    -18.760792683
H    -8.147370188    -2.588217346    -18.874303204
C    -11.420630732    -6.405903894    -20.763425584
C    -12.580992980    -6.053587051    -21.660776049
C    -13.822584368    -5.616329013    -20.884219626
C    -13.456511749    -4.544522702    -19.904008130
O    -10.350043985    -6.819595061    -21.115869270
O    -11.737793758    -6.189952504    -19.473695847
O    -12.611658969    -3.683118372    -20.029118209
O    -14.240381457    -4.589359463    -18.807113554
H    -12.239714799    -5.237787069    -22.342411077
H    -12.813069679    -6.917671341    -22.319530068
H    -14.270789390    -6.484544602    -20.343074055
H    -14.613522912    -5.247138953    -21.572202573
H    -10.963036148    -6.050517092    -18.839779908
H    -13.962580963    -3.966022621    -18.085570505
