21
-3140.43615
S    3.904619108    -12.647088687    17.247471451
O    4.633699376    -13.376065698    16.249250620
O    2.765768468    -11.829701168    16.862193608
O    3.384558373    -13.648061558    18.420769267
O    4.899947413    -11.677526071    18.065748042
H    2.561966584    -13.381942218    18.874245247
H    5.116008739    -10.824366132    17.573597216
C    6.758129414    -11.063828065    14.247639812
C    6.560609404    -9.638084341    13.800381269
C    5.105668231    -9.175195259    13.893884161
C    4.522900358    -9.603694778    15.210371553
O    7.802429666    -11.598525343    14.504563011
O    5.576105952    -11.708735233    14.330446487
O    5.150651992    -9.731555445    16.245049232
O    3.212022833    -9.828502910    15.132432920
H    7.215660006    -8.990038212    14.429423068
H    6.937372217    -9.529488301    12.760317685
H    4.499952251    -9.613104948    13.064905544
H    5.026498545    -8.074735601    13.777623980
H    5.586752444    -12.597513040    14.794096993
H    2.836358785    -10.429609614    15.864621438
