21
-3140.32438
S    -1.870879800    1.837851879    -3.535751608
O    -1.677940677    0.480275199    -3.956447768
O    -2.095434247    2.931471528    -4.426156693
O    -3.086486575    1.866118865    -2.435053181
O    -0.609126577    2.184346550    -2.550641440
H    -3.692492963    2.627243327    -2.472572346
H    -0.043594799    1.439763861    -2.285985946
C    -4.455755614    -0.305620672    -5.712599647
C    -4.363151682    -1.212553639    -4.526371142
C    -5.139271437    -0.727601492    -3.307912542
C    -6.614698072    -0.801021737    -3.533261936
O    -4.284661193    -0.583230860    -6.868950201
O    -4.743741821    0.976206375    -5.349986688
O    -7.234049159    -1.404572410    -4.367377234
O    -7.263312241    -0.062549119    -2.590405112
H    -4.698720108    -2.232077592    -4.829288520
H    -3.275024535    -1.313626537    -4.265749997
H    -4.843916461    0.315406724    -3.032532922
H    -4.875252488    -1.332897335    -2.411164178
H    -4.752976037    1.605377099    -6.114062589
H    -8.246195072    -0.069855178    -2.689281683
