21
-3140.32129
S    -6.989967440    -1.887523512    -2.125690733
O    -6.595513127    -2.444352519    -0.874232705
O    -8.088014485    -2.393972891    -2.898230832
O    -7.215244511    -0.275559200    -1.975581306
O    -5.666384028    -1.829810787    -3.088706378
H    -7.258871293    0.242826484    -2.797073886
H    -4.844748544    -2.231400922    -2.763642299
C    -9.608748209    -5.199888758    -4.399100563
C    -10.785738242    -6.009581432    -4.871388019
C    -12.052057623    -5.197024762    -5.120453909
C    -12.131072504    -4.733534601    -6.540060225
O    -8.480417906    -5.611189099    -4.290063119
O    -9.950510743    -3.946387988    -4.065280241
O    -11.401314335    -4.963368760    -7.466609452
O    -13.244430387    -3.967783167    -6.708892550
H    -10.479839457    -6.560330673    -5.796146179
H    -10.978057146    -6.802531096    -4.113565968
H    -12.108263029    -4.312383151    -4.436648394
H    -12.961082380    -5.790317316    -4.874714552
H    -9.206816189    -3.390138048    -3.687183586
H    -13.359406580    -3.631266595    -7.630065367
