21
-3140.35363
S    8.605033828    -9.712926110    16.253685629
O    8.027134926    -9.475065428    14.969930313
O    7.848026544    -9.635692298    17.470591264
O    9.356330145    -11.167497199    16.268158547
O    9.922660162    -8.754759400    16.387921365
H    9.588642297    -11.527859704    17.139918880
H    10.058238822    -8.079659192    15.700996553
C    6.988810150    -6.264404292    18.975291100
C    6.061291634    -7.380762533    18.624794639
C    4.800207733    -7.432972372    19.476803312
C    3.866520011    -6.319250329    19.122104031
O    7.895362834    -5.820602081    18.320107164
O    6.728271765    -5.758777627    20.212252859
O    3.961803489    -5.489590245    18.258062149
O    2.777448406    -6.351157857    19.937414115
H    5.805559972    -7.305315454    17.539658694
H    6.626091460    -8.349166027    18.709627541
H    5.047360979    -7.385527837    20.565111223
H    4.281221587    -8.410012131    19.347400508
H    7.314179895    -5.002991288    20.460273005
H    2.126307207    -5.630319015    19.756823648
