14
Properties=species:S:1:pos:R:3:forces:R:3 -2771.04010=T energy=-38102.61649948877 free_energy=-38102.61649948877 pbc="F F F"
S        1.90080433      -4.23201603       0.87086417       0.00022159      -0.00029759      -0.00003448
O        0.73484196      -4.40457676       0.05056380      -0.00022972       0.00027210      -0.00003874
O        2.17844776      -3.02300241       1.59483677      -0.00007522       0.00002694       0.00009215
O        1.88221699      -5.48154362       1.91022225      -0.00009006      -0.00019914       0.00002769
O        3.22027818      -4.58576709       0.04835020       0.00010997       0.00021565      -0.00023909
H        2.63959348      -5.38963742       2.51948192      -0.00007936       0.00004073       0.00023214
H        3.09637505      -5.46929279      -0.35725587      -0.00008353      -0.00012518      -0.00019012
S        3.19157821      -8.69391761       0.24561859       0.00043382      -0.00006519      -0.00004651
O        4.26746776      -9.63310433       0.39849168       0.00010419      -0.00022721       0.00023219
O        1.98439765      -8.99448191      -0.47166814      -0.00047958       0.00022775      -0.00007725
O        2.85332378      -8.14450975       1.70382247       0.00025487       0.00006828      -0.00043714
O        3.76641744      -7.33366733      -0.43362248      -0.00012825      -0.00009353       0.00015558
H        2.20632061      -7.41443461       1.60976277       0.00010046       0.00013170       0.00007597
H        4.61509760      -7.10851373      -0.00666616      -0.00005903       0.00002473       0.00024752
