14
Properties=species:S:1:pos:R:3:forces:R:3 -2771.43066=T energy=-38103.058602081386 free_energy=-38103.058602081386 pbc="F F F"
S      -12.09976411       0.39660254     -10.24038805       0.00060950       0.00021653      -0.00001516
O      -10.69567994       0.60868909      -9.94141628      -0.00040543      -0.00008577      -0.00005203
O      -12.80686733       1.29466270     -11.10454735      -0.00001025      -0.00009251      -0.00001276
O      -12.13039388      -1.09507035     -10.83109546       0.00056562       0.00032872       0.00029348
O      -12.92476509       0.24648136      -8.90972561      -0.00009421      -0.00008278      -0.00015220
H      -13.05604665      -1.37885305     -10.90134496      -0.00072619      -0.00020879      -0.00012680
H      -12.46623728      -0.36213757      -8.26831280       0.00008340      -0.00016942       0.00012001
S      -10.38913995      -1.46998163      -7.00782784      -0.00041541       0.00009356       0.00006596
O      -11.80953001      -1.13132348      -6.97410237       0.00053465      -0.00013244      -0.00012073
O       -9.98283675      -2.72261546      -7.56630627      -0.00010461       0.00015640       0.00002342
O       -9.60756616      -0.24997410      -7.62978355       0.00001095      -0.00003970       0.00010177
O       -9.82694250      -1.38559791      -5.52054117      -0.00010663       0.00034294      -0.00000963
H       -9.92975590      -0.07749790      -8.54924626      -0.00006622      -0.00000824      -0.00000660
H       -9.93816303      -0.47642370      -5.19249456       0.00012466      -0.00031864      -0.00010869
