14
Properties=species:S:1:pos:R:3:forces:R:3 -2771.17511=T energy=-38102.695082920676 free_energy=-38102.695082920676 pbc="F F F"
S       -8.79891980       0.95867424      -4.06875309      -0.00023155      -0.00077387       0.00009106
O       -7.38621271       0.64504728      -4.11657417      -0.00007820      -0.00083601       0.00051570
O       -9.62340506       0.97154419      -5.24085441       0.00074267       0.00033887      -0.00006354
O       -9.39730028      -0.06340716      -2.98831582      -0.00065444       0.00057872      -0.00032324
O       -8.98302027       2.36521139      -3.33245150      -0.00013267      -0.00021267       0.00026999
H      -10.36746339      -0.04399871      -3.04389754      -0.00054389       0.00055464      -0.00036511
H       -8.21100187       2.50562944      -2.74066798       0.00036853      -0.00030954       0.00019335
S       -4.54295465       2.07549423      -1.93820758      -0.00003013      -0.00054225      -0.00017489
O       -4.06277728       0.75629566      -1.62769477       0.00058347      -0.00002289      -0.00035067
O       -4.35080684       3.19371030      -1.05278605      -0.00007465       0.00068963       0.00018811
O       -3.89250433       2.42521933      -3.37595340      -0.00004146       0.00008050       0.00011420
O       -6.08263207       2.03295404      -2.31696200       0.00014659      -0.00029388      -0.00017214
H       -4.27668031       3.26297831      -3.68592932      -0.00024799       0.00079289      -0.00029563
H       -6.25907877       1.28846153      -2.94902362       0.00019358      -0.00004410       0.00037291
