14
Properties=species:S:1:pos:R:3:forces:R:3 -2771.47240=T energy=-38103.186523812816 free_energy=-38103.186523812816 pbc="F F F"
S        0.67006126      -4.55211339       2.07022127      -0.00003231      -0.00014539      -0.00003911
O        2.08819593      -4.38609628       2.37086390       0.00008535       0.00001140      -0.00008500
O       -0.28974543      -3.76796086       2.78736212       0.00005436      -0.00005418       0.00005436
O        0.42299839      -4.43877088       0.53609693       0.00009179      -0.00013980       0.00011411
O        0.34845415      -6.12365244       2.26236200      -0.00005078       0.00018886      -0.00005993
H        1.07111158      -4.99654246       0.02865101      -0.00004395       0.00018100      -0.00000462
H        0.32008556      -6.32259634       3.21477683      -0.00001533      -0.00003877       0.00006192
S        3.29102748      -6.52181823      -0.17371952       0.00015040      -0.00013453       0.00028259
O        4.32121710      -7.14765933      -0.93902078       0.00015628      -0.00012469      -0.00004661
O        2.24699888      -5.75647021      -0.85857846      -0.00011563       0.00007927       0.00000628
O        2.56737191      -7.65749764       0.67488827       0.00002442       0.00016531      -0.00007686
O        3.94442914      -5.60618745       0.92472881      -0.00002874       0.00005564      -0.00002040
H        1.85329187      -7.25796860       1.21180360      -0.00009383      -0.00007951      -0.00002320
H        3.25204831      -5.10251577       1.42804051      -0.00018219       0.00003548      -0.00016341
