14
Properties=species:S:1:pos:R:3:forces:R:3 -2771.40775=T energy=-38103.05860025672 free_energy=-38103.05860025672 pbc="F F F"
S       -8.57889128       5.65606963      -8.35003105       0.00002695      -0.00012054       0.00005561
O       -7.79467834       4.47101189      -8.68760516       0.00009990       0.00006306       0.00024862
O       -9.20922595       6.39825470      -9.39783354       0.00004959      -0.00005805      -0.00026488
O       -9.58199332       5.26959563      -7.19653056      -0.00013492      -0.00019316       0.00003093
O       -7.64169210       6.65100599      -7.53334887       0.00013655      -0.00022936       0.00049440
H      -10.18601016       4.54858172      -7.50355062       0.00010935      -0.00001422      -0.00006652
H       -7.34897160       6.20984438      -6.71708330      -0.00018324       0.00053753      -0.00053622
S      -10.44518432       2.00933051      -8.63546255       0.00003032       0.00002175      -0.00006474
O      -10.82671828       0.63596151      -8.48855661      -0.00002471      -0.00001287      -0.00005620
O      -10.96954723       3.02320067      -7.73941529       0.00023023      -0.00016999       0.00015125
O       -8.87450403       2.07894928      -8.67952776      -0.00006887      -0.00001299       0.00006985
O      -10.85178380       2.55477951     -10.08878365      -0.00006400       0.00018284      -0.00021698
H       -8.55796297       3.01905858      -8.76952496       0.00000758      -0.00012292       0.00006903
H      -10.39305146       2.02047783     -10.75693614      -0.00021462       0.00012907       0.00008582
