14
Properties=species:S:1:pos:R:3:forces:R:3 -2770.92562=T energy=-38103.09384762666 free_energy=-38103.09384762666 pbc="F F F"
S      -12.90595868       6.03476938      -4.22152037      -0.00030503       0.00034301      -0.00021277
O      -13.85454265       5.39207379      -5.09048439       0.00006652      -0.00019300       0.00013542
O      -12.53672083       7.41251907      -4.53258688       0.00013602      -0.00001347       0.00014469
O      -13.40608024       5.98926629      -2.71080065      -0.00032158       0.00016229      -0.00016832
O      -11.62002495       5.18353493      -3.98818851       0.00013870      -0.00020096       0.00011578
H      -14.26304795       6.44764350      -2.64088575       0.00030728      -0.00013279       0.00004036
H      -11.05376582       5.17446623      -4.80170155       0.00005250       0.00002104      -0.00006561
S       -9.77691245       6.72312115      -6.77701300      -0.00001278       0.00011599       0.00012325
O       -9.80635813       5.51175732      -5.97869478      -0.00009924      -0.00031984       0.00016713
O       -8.55686999       7.17420769      -7.37822501       0.00005621       0.00012088      -0.00014830
O      -10.89145118       6.45437040      -7.89988096       0.00012231      -0.00019524       0.00017896
O      -10.39752814       7.92387657      -5.97196755       0.00020605       0.00008110      -0.00005938
H      -11.06403486       7.28772904      -8.36700275      -0.00014728       0.00026590      -0.00026587
H      -11.23542839       7.65058571      -5.50618589      -0.00019976      -0.00005488       0.00001459
