14
Properties=species:S:1:pos:R:3:forces:R:3 -2771.24871=T energy=-38102.87574742289 free_energy=-38102.87574742289 pbc="F F F"
S      -11.46789271       9.14061462      -1.43446383      -0.00060270      -0.00010781       0.00029576
O      -12.83325745       9.02439857      -1.00083475       0.00006938       0.00003177       0.00007987
O      -11.12544076       9.39527628      -2.80805851       0.00028062       0.00005805      -0.00053072
O      -10.76457131      10.18029953      -0.47113043      -0.00026978       0.00013790       0.00001961
O      -10.67529407       7.77957066      -1.05634740       0.00009665      -0.00009401       0.00054228
H       -9.78095055      10.10397635      -0.52926417       0.00034284       0.00004046       0.00008465
H      -10.61101645       7.69135460      -0.08604897      -0.00001897      -0.00007908      -0.00050057
S       -7.49587702       8.59310952       0.20466698      -0.00019063       0.00018119       0.00008116
O       -6.13141523       8.54442992       0.63846821       0.00028515       0.00008762       0.00002915
O       -8.20768020       9.84470911       0.07348078       0.00014615       0.00003666       0.00012407
O       -7.60095324       7.78255718      -1.15478404       0.00018277      -0.00016388      -0.00011903
O       -8.40719292       7.70116860       1.18795461       0.00010639      -0.00024817       0.00003028
H       -8.54684638       7.72561662      -1.40918645      -0.00023350      -0.00005447      -0.00007360
H       -7.83685005       7.03552511       1.60731214      -0.00019439       0.00017373      -0.00006316
