14
Properties=species:S:1:pos:R:3:forces:R:3 -2771.06352=T energy=-38102.72827389246 free_energy=-38102.72827389246 pbc="F F F"
S       16.88216046      -1.87243622     -18.17710874       0.00029508      -0.00007678       0.00018441
O       18.01308339      -2.24626855     -17.35923835      -0.00007892      -0.00000626       0.00025439
O       17.06207333      -1.14012365     -19.39854414      -0.00023979       0.00043023      -0.00021183
O       15.96788795      -3.14489005     -18.42028881      -0.00033391      -0.00028133       0.00018835
O       15.85602669      -1.02865640     -17.28055308       0.00028959       0.00014856      -0.00085983
H       16.44915075      -3.79078716     -18.99519580       0.00007919       0.00001092      -0.00008281
H       15.83075339      -1.41806266     -16.38830105      -0.00002398      -0.00024809       0.00050790
S       17.10307581      -6.53911857     -19.08755351       0.00012372      -0.00055990       0.00007585
O       17.20389279      -7.74979874     -19.84044727      -0.00011943       0.00010586       0.00009614
O       16.97246516      -5.25722087     -19.76445939      -0.00002371       0.00065470      -0.00042886
O       15.93203936      -6.70114022     -18.02773514      -0.00012906      -0.00001846       0.00010933
O       18.30833583      -6.40363691     -18.03626342       0.00084847       0.00004062      -0.00017498
H       15.86982363      -5.89269303     -17.48762920       0.00001231      -0.00008727      -0.00001452
H       19.12600926      -6.18469221     -18.51648357      -0.00069963      -0.00011288       0.00035640
