14
Properties=species:S:1:pos:R:3:forces:R:3 -2771.44677=T energy=-38103.022966919314 free_energy=-38103.022966919314 pbc="F F F"
S       13.29830583       5.79806687     -19.48484776      -0.00000220       0.00002213      -0.00015305
O       13.74174165       4.46522987     -19.76440218       0.00006837      -0.00007749      -0.00005773
O       13.50752640       6.86219675     -20.45120859       0.00007217       0.00001717      -0.00003266
O       11.78300953       5.73551626     -19.06702012      -0.00020880      -0.00002266       0.00014240
O       13.99729246       6.36332240     -18.15604560       0.00012469       0.00014532      -0.00001027
H       11.42571198       6.64350274     -18.88563056       0.00004573       0.00004942      -0.00001368
H       13.72535331       5.81159041     -17.40556157      -0.00005290      -0.00010270       0.00013831
S       11.09557343       9.32731423     -19.31461826      -0.00003844      -0.00011471       0.00033127
O       10.59210466       8.06694743     -18.77513634       0.00011665       0.00027394      -0.00013369
O       10.15710228      10.36019282     -19.63686459       0.00002021      -0.00000787      -0.00009608
O       12.18320231       9.87338461     -18.26684097      -0.00029245       0.00009803       0.00043595
O       12.03244889       9.06101106     -20.53314555      -0.00003208      -0.00010625       0.00007501
H       11.72485554      10.11324938     -17.44311171       0.00021005      -0.00023690      -0.00056725
H       12.64261003       8.29484270     -20.37096687      -0.00003096       0.00006252      -0.00005851
