14
Properties=species:S:1:pos:R:3:forces:R:3 -2771.40885=T energy=-38103.058602436184 free_energy=-38103.058602436184 pbc="F F F"
S      -10.73364935      -5.56059248     -17.27625605       0.00014722       0.00025761       0.00031333
O      -10.92075631      -4.83155502     -18.49262352      -0.00024070       0.00027311       0.00010335
O      -11.90402736      -6.00699161     -16.52508424       0.00002009      -0.00033069       0.00025344
O       -9.83771625      -6.83710801     -17.59720462      -0.00014655       0.00020414      -0.00014551
O       -9.75854287      -4.82765017     -16.27720225       0.00017295      -0.00012410      -0.00029826
H       -9.55304718      -7.24126516     -16.75924819       0.00030512      -0.00035091       0.00028157
H      -10.21332146      -4.04602501     -15.87570393      -0.00002283      -0.00004134       0.00011904
S      -12.43200885      -3.05492893     -14.50197957       0.00018091      -0.00018460      -0.00036280
O      -11.01092176      -2.96702700     -14.78229318       0.00066900      -0.00004366      -0.00016254
O      -12.97867232      -2.47956362     -13.30893549      -0.00022960      -0.00012696       0.00062633
O      -13.10626281      -2.40116791     -15.80307711      -0.00008690       0.00020756      -0.00079560
O      -12.91455177      -4.54932034     -14.59036772      -0.00031281      -0.00015873       0.00026246
H      -14.06122333      -2.57289222     -15.77355539      -0.00049834       0.00043571       0.00020242
H      -12.55001053      -4.99813286     -15.40138374       0.00004223      -0.00001708      -0.00039743
