14
Properties=species:S:1:pos:R:3:forces:R:3 -2771.22539=T energy=-38102.863159764354 free_energy=-38102.863159764354 pbc="F F F"
S      -11.42826191      -4.93156293     -19.30316306       0.00033077      -0.00001569       0.00007085
O      -11.05924692      -4.98385392     -20.69183988       0.00024128       0.00004929      -0.00026655
O      -10.45843654      -5.02867200     -18.24678685       0.00072920      -0.00002613       0.00041580
O      -12.36416283      -3.67743153     -19.11250647      -0.00008148       0.00053501      -0.00052744
O      -12.48161636      -6.13721287     -19.00039298      -0.00032040      -0.00007518       0.00007170
H      -12.81235974      -3.70130969     -18.22679128      -0.00000378      -0.00001408       0.00040728
H      -13.19561676      -6.09342531     -19.66245012      -0.00002253       0.00011548      -0.00011827
S      -14.26647458      -4.59846518     -16.13501808      -0.00051219      -0.00019985      -0.00066533
O      -13.42128496      -4.85813575     -15.00273297       0.00007856       0.00005519      -0.00003588
O      -13.94931983      -3.52062891     -17.04728811      -0.00012296      -0.00014192      -0.00027418
O      -14.49136446      -5.92955801     -16.96735065      -0.00044615      -0.00014597       0.00030806
O      -15.76660849      -4.32936359     -15.68937111      -0.00008449      -0.00024557       0.00003761
H      -13.63059548      -6.17283295     -17.37135777      -0.00017836      -0.00030932      -0.00021344
H      -16.05194912      -5.03369276     -15.08171567       0.00039245       0.00041859       0.00079012
