14
Properties=species:S:1:pos:R:3:forces:R:3 -2771.03503=T energy=-38102.63529790361 free_energy=-38102.63529790361 pbc="F F F"
S      -11.48133686       7.66206820      -5.25059845      -0.00018719       0.00016906      -0.00015194
O      -11.41576169       7.05344773      -6.54928825      -0.00026029       0.00010991       0.00037706
O      -12.24954131       8.84250903      -4.97048634       0.00044847      -0.00081170      -0.00014079
O      -11.94631353       6.47806082      -4.24421161       0.00015332       0.00070792       0.00007825
O      -10.01335133       7.94312345      -4.68963574       0.00010601      -0.00014535       0.00012455
H      -12.05411577       6.86002418      -3.35443077      -0.00000876      -0.00032964      -0.00036702
H       -9.46905893       7.13311238      -4.79149398      -0.00028125       0.00036847      -0.00001120
S       -8.72657990       3.95605676      -3.98130433       0.00024823      -0.00034024      -0.00002925
O       -9.28420495       3.13605263      -5.02846092       0.00007451       0.00019777       0.00012922
O       -7.65913497       3.49327722      -3.14463724      -0.00025988       0.00020252      -0.00031114
O       -8.31930793       5.37848988      -4.65224136       0.00052470      -0.00016481      -0.00040963
O       -9.87193770       4.51412094      -3.03614447      -0.00034431       0.00001305       0.00006323
H       -7.80979628       5.21024089      -5.46716707      -0.00040191       0.00002198       0.00050290
H      -10.57034756       4.91392370      -3.59544541       0.00018801       0.00000127       0.00014599
