14
Properties=species:S:1:pos:R:3:forces:R:3 -2771.42704=T energy=-38103.05860061152 free_energy=-38103.05860061152 pbc="F F F"
S       -4.81288960       4.70882863       0.73901560       0.00006402       0.00023280      -0.00011194
O       -4.11935954       3.52661981       0.26238362      -0.00001454      -0.00039244       0.00000007
O       -5.73886691       5.40337633      -0.10564286      -0.00002939       0.00010991       0.00005448
O       -5.54232980       4.19638181       2.07327775       0.00007636      -0.00028670      -0.00016880
O       -3.78325625       5.75615129       1.30186003      -0.00000758       0.00003655       0.00005220
H       -5.89360741       4.96743771       2.54697884      -0.00013435       0.00022107       0.00019994
H       -3.10813456       5.31802837       1.88866896      -0.00005092       0.00000010      -0.00000734
S       -1.44934653       3.38295537       2.68536939       0.00033811       0.00011387      -0.00009952
O       -2.00302589       2.53468528       3.69529716       0.00007910       0.00020754      -0.00021577
O       -1.77143950       4.80755094       2.69523334       0.00011659      -0.00034881       0.00003690
O        0.13545611       3.23567290       2.72954969      -0.00033846       0.00014830      -0.00010735
O       -1.70139037       2.83208521       1.22964510      -0.00009659       0.00000872       0.00012720
H        0.51379405       3.66111711       1.94060457      -0.00011870      -0.00009933       0.00020857
H       -2.65059036       2.95976115       0.98127406       0.00011620       0.00004841       0.00003120
