14
Properties=species:S:1:pos:R:3:forces:R:3 -2771.17348=T energy=-38102.87498993323 free_energy=-38102.87498993323 pbc="F F F"
S        2.45979811      -2.93213833       0.49694315      -0.00004130      -0.00001045      -0.00007272
O        1.70631953      -2.49459617      -0.65603347       0.00038099      -0.00037700      -0.00051355
O        3.39837735      -2.05654518       1.13850331      -0.00010395       0.00038928      -0.00007367
O        1.36596312      -3.43191530       1.59327817      -0.00013870       0.00015265      -0.00022715
O        3.16651298      -4.30717441       0.23755958       0.00024574       0.00003196       0.00052625
H        0.60227685      -2.82738461       1.55680220       0.00024083       0.00082069       0.00033869
H        2.51127090      -4.98997826      -0.06015174       0.00051154      -0.00000331       0.00011108
S        0.53229224      -6.83496406       0.49396793      -0.00015510      -0.00000919       0.00010424
O        1.69266125      -6.45031107      -0.28001240      -0.00054049       0.00028525      -0.00025547
O       -0.78634592      -6.45943547       0.06407378      -0.00059772      -0.00045264       0.00057331
O        0.65225430      -8.40923604       0.67136728       0.00000373      -0.00013280       0.00011329
O        0.75528891      -6.40803996       2.00928487       0.00014945      -0.00016975       0.00015870
H       -0.10300956      -8.72944834       1.19427769       0.00021094      -0.00044428      -0.00085326
H        0.84570706      -5.42918986       2.03412655      -0.00016572      -0.00008040       0.00007021
