14
Properties=species:S:1:pos:R:3:forces:R:3 -2771.17398=T energy=-38102.70743621105 free_energy=-38102.70743621105 pbc="F F F"
S      -10.45460025       3.34236664      -0.44353253       0.00007690      -0.00005794       0.00001793
O      -10.42736591       1.90686456      -0.52104432      -0.00001305       0.00002265       0.00013165
O       -9.25343843       4.13365123      -0.41047493       0.00002867      -0.00000143      -0.00004657
O      -11.35855618       3.80840293      -1.69937285      -0.00001776      -0.00009897      -0.00006184
O      -11.36306504       3.81951311       0.76592267      -0.00005196       0.00005869      -0.00004739
H      -11.55343567       4.75578564      -1.59748072       0.00006507       0.00000599      -0.00008623
H      -12.21516603       3.30820351       0.77878004      -0.00004028       0.00008835      -0.00003154
S      -14.50094362       4.43667461       1.81282221       0.00001805       0.00009856       0.00016373
O      -13.91235457       3.24989643       1.22895792       0.00002843       0.00001287      -0.00011419
O      -15.19350433       5.39050056       0.99125792      -0.00007278       0.00006390      -0.00001042
O      -15.43532377       3.92252375       2.99444833      -0.00022327       0.00016844       0.00010106
O      -13.38158607       5.17323852       2.68970938       0.00005531      -0.00005621       0.00003533
H      -15.87281879       4.68595828       3.41038327       0.00017832      -0.00031073      -0.00010589
H      -12.55309427       5.18572857       2.16341896      -0.00003161       0.00000618       0.00005437
