14
Properties=species:S:1:pos:R:3:forces:R:3 -2771.21133=T energy=-38102.86317273975 free_energy=-38102.86317273975 pbc="F F F"
S       -7.56217508       0.25316458      -4.14528624       0.00014918      -0.00025526      -0.00010551
O       -7.12054051       0.15434336      -5.51994684      -0.00011182       0.00005764      -0.00006020
O       -7.59014454       1.52921494      -3.48582424      -0.00010794       0.00011736       0.00003922
O       -8.98972014      -0.44182057      -4.12285455       0.00034419       0.00015363      -0.00059782
O       -6.76150988      -0.79878341      -3.26933146      -0.00012356      -0.00006693       0.00012343
H       -9.34450260      -0.41651927      -3.21718080      -0.00028570      -0.00004610       0.00063485
H       -5.81996709      -0.52148496      -3.26440690       0.00008802       0.00002318      -0.00001747
S       -3.46205401       0.09818862      -5.31378643       0.00021915      -0.00013597       0.00001990
O       -3.41184876       1.45182297      -4.83304929      -0.00002277      -0.00006485      -0.00009310
O       -2.31118431      -0.56419586      -5.86523362      -0.00017488       0.00013793       0.00006306
O       -3.99788546      -0.76599892      -4.04063394       0.00000367       0.00010326      -0.00000408
O       -4.65363451      -0.11041791      -6.32470951       0.00011208      -0.00000829       0.00001170
H       -4.09908096      -1.69394014      -4.32119202      -0.00002515      -0.00007073      -0.00003555
H       -5.51882721       0.14498085      -5.90982045      -0.00006434       0.00005530       0.00002145
