14
Properties=species:S:1:pos:R:3:forces:R:3 -2771.42739=T energy=-38103.058602689605 free_energy=-38103.058602689605 pbc="F F F"
S       -5.90501083      -2.39630255      -5.30907100      -0.00022180       0.00007105      -0.00005576
O       -4.83951706      -3.38030743      -5.26170369       0.00021422      -0.00008821      -0.00007927
O       -6.76783224      -2.30748554      -6.44965370       0.00000644      -0.00004327      -0.00015432
O       -6.75385569      -2.70694757      -3.98321449      -0.00002128       0.00001666       0.00019139
O       -5.33569486      -0.96031839      -5.01301072      -0.00003871      -0.00010119      -0.00000396
H       -7.39011085      -1.98606192      -3.84968565      -0.00001710       0.00004391      -0.00003095
H       -4.71791039      -0.97177142      -4.23180052       0.00007359       0.00012388       0.00015204
S       -2.83283467      -1.96097427      -2.61986802       0.00004928      -0.00004815       0.00022167
O       -3.50869573      -0.77430920      -3.13787631      -0.00019896       0.00002289      -0.00017762
O       -3.35685253      -2.61245142      -1.45924340      -0.00005799      -0.00003964      -0.00004476
O       -2.60207921      -2.95813865      -3.81925222       0.00016277       0.00008406       0.00000185
O       -1.31546422      -1.57623906      -2.32874939      -0.00007886      -0.00018558       0.00042874
H       -3.47178261      -3.21691843      -4.21371974      -0.00018582       0.00000571       0.00000091
H       -0.89527395      -1.29859244      -3.16115468       0.00031412       0.00013803      -0.00045002
