14
Properties=species:S:1:pos:R:3:forces:R:3 -2771.39119=T energy=-38103.1034953434 free_energy=-38103.1034953434 pbc="F F F"
S        7.69022333       5.04631493     -11.26974783       0.00001062       0.00001118       0.00000252
O        6.96515356       4.45229479     -12.35099665      -0.00003290      -0.00005221      -0.00008225
O        7.62397993       6.49012921     -11.06865251      -0.00000879       0.00002396       0.00003147
O        7.22688481       4.33065146      -9.92289138       0.00002011      -0.00001410       0.00009334
O        9.20818877       4.61408575     -11.25488983       0.00003853       0.00005496      -0.00004254
H        7.83151277       4.59049728      -9.20661453      -0.00004280      -0.00001722      -0.00002201
H        9.70807390       5.10354735     -11.95769257      -0.00001444      -0.00002805       0.00004542
S       10.47112776       7.49506032     -13.09920524       0.00005970       0.00008749       0.00004542
O       10.79378623       6.09311410     -12.85453668       0.00001657      -0.00001371       0.00000697
O        9.86170519       7.87119066     -14.33808246      -0.00004041      -0.00000358      -0.00007755
O        9.68078460       8.04607720     -11.84900520       0.00004275       0.00003622       0.00002128
O       11.80443760       8.35279994     -12.93350398      -0.00003666      -0.00001816      -0.00005086
H        8.86377436       7.50483085     -11.69756834      -0.00002127      -0.00002019      -0.00000963
H       12.13441580       8.24563427     -12.02478329       0.00000889      -0.00004649       0.00003831
