14
Properties=species:S:1:pos:R:3:forces:R:3 -2771.45822=T energy=-38103.09239701749 free_energy=-38103.09239701749 pbc="F F F"
S       -3.51077145      -2.34852374      -3.65333491       0.00012220       0.00003513       0.00001630
O       -3.31168749      -3.40806126      -2.68288715      -0.00002754       0.00003028      -0.00009823
O       -4.70306278      -2.29495565      -4.44693731      -0.00023723       0.00000566      -0.00015098
O       -3.36084021      -1.00746970      -2.78213468      -0.00005862      -0.00008970       0.00000641
O       -2.27621148      -2.25601085      -4.62444807       0.00015666       0.00012301      -0.00003174
H       -3.33869378      -0.24987127      -3.38906342      -0.00010522      -0.00008051       0.00019781
H       -1.41859458      -2.37895767      -4.13303285       0.00002289       0.00002498      -0.00005061
S        0.24302239      -3.91038179      -2.70693775      -0.00015765       0.00001222       0.00022898
O        0.38123838      -5.19845604      -3.33121192       0.00001514      -0.00039554      -0.00001258
O        0.09297750      -2.75190843      -3.58198057       0.00002477       0.00012732      -0.00018803
O       -0.85913137      -3.88337572      -1.60323741       0.00010049       0.00015746       0.00013021
O        1.46386208      -3.62992541      -1.72401494       0.00012523       0.00007580      -0.00006147
H       -1.76244666      -3.88225460      -2.01147308      -0.00003923       0.00004706       0.00001513
H        2.29656498      -3.65392781      -2.22941319       0.00005813      -0.00007308      -0.00000112
