14
Properties=species:S:1:pos:R:3:forces:R:3 -2771.06436=T energy=-38102.67198427582 free_energy=-38102.67198427582 pbc="F F F"
S       12.51168874       4.76709182     -18.11815103      -0.00067749      -0.00008484       0.00052820
O       12.71585984       4.85532434     -19.53191120      -0.00030512      -0.00039336       0.00006962
O       11.62689587       5.65411606     -17.39534505       0.00048944      -0.00017011      -0.00045103
O       12.09730030       3.25359769     -17.80117133       0.00027921       0.00026758       0.00001151
O       13.91561302       4.88127243     -17.34911791      -0.00085711       0.00023669       0.00012904
H       12.03572653       3.13529844     -16.83725514       0.00025766       0.00052021       0.00021711
H       14.62369472       4.57508570     -17.94067887       0.00066563      -0.00005776      -0.00069656
S        9.95683259       8.76999487     -18.69525226       0.00031896      -0.00008293      -0.00015480
O        9.90369106       8.12598393     -19.99022122       0.00026411       0.00043678       0.00007057
O        9.04381431       9.80547170     -18.31426831       0.00014484      -0.00009871      -0.00009513
O        9.95336601       7.68075583     -17.55279684      -0.00039642      -0.00005376      -0.00004907
O       11.43847957       9.40176760     -18.55495108      -0.00032814      -0.00012232       0.00020247
H       10.58119856       6.94294231     -17.75384380      -0.00005610      -0.00031374      -0.00020608
H       12.04632424       8.83511114     -19.06119177       0.00020058      -0.00008382       0.00042426
