14
Properties=species:S:1:pos:R:3:forces:R:3 -2771.27066=T energy=-38102.87574645987 free_energy=-38102.87574645987 pbc="F F F"
S       -6.91206556      -6.11126379     -15.47444202      -0.00040096      -0.00031123       0.00061343
O       -7.28932295      -6.84856994     -16.65953193       0.00017217       0.00009656       0.00026321
O       -6.78448291      -6.75018377     -14.19857392       0.00034535       0.00000126      -0.00056505
O       -5.52342827      -5.39294537     -15.85993074       0.00003275      -0.00015652      -0.00060087
O       -7.87981896      -4.86687635     -15.29811021      -0.00008845       0.00025016      -0.00002693
H       -5.04089408      -5.20709340     -15.03724040       0.00002067      -0.00001148       0.00058452
H       -7.89602072      -4.36513708     -16.14112309      -0.00009344       0.00016457      -0.00015278
S       -7.76242606      -4.44901740     -19.38300591       0.00002378       0.00021056       0.00009975
O       -7.03668715      -4.00340858     -20.54079515       0.00012958       0.00028348      -0.00038648
O       -9.18373379      -4.26586569     -19.25953352      -0.00015640      -0.00004132       0.00003946
O       -7.36075368      -5.96002945     -19.13988195       0.00005466       0.00005543      -0.00035229
O       -7.13880896      -3.74451427     -18.06450488      -0.00002879      -0.00047319      -0.00021018
H       -7.59723395      -6.24369739     -18.22319874      -0.00001756      -0.00012104       0.00057696
H       -6.22925485      -4.06646228     -17.91473031       0.00000671       0.00005277       0.00011743
