14
Properties=species:S:1:pos:R:3:forces:R:3 -2771.25383=T energy=-38102.87451704072 free_energy=-38102.87451704072 pbc="F F F"
S      -10.37015107       7.73518611      -0.27431049      -0.00040512       0.00024102       0.00016859
O       -9.33835296       6.80928709      -0.68431587       0.00030208      -0.00008380       0.00006657
O      -11.62389208       7.81186965      -0.96087612      -0.00001132       0.00007597      -0.00010817
O      -10.59340007       7.41398762       1.28592849      -0.00016749       0.00003263       0.00002244
O       -9.77314646       9.20523762      -0.20877500       0.00004448      -0.00005122      -0.00028571
H      -11.25683535       8.03025563       1.63891580       0.00018902      -0.00021107       0.00003646
H       -8.95998352       9.18588325       0.33871493       0.00001906       0.00003843       0.00011201
S       -6.32565000       7.57242458       1.25159847      -0.00001850       0.00014409      -0.00023407
O       -5.69542633       8.46508163       0.31636253       0.00003523      -0.00014079       0.00003982
O       -5.61371286       7.01567385       2.36904316       0.00048228      -0.00006449       0.00034308
O       -7.61298681       8.39035300       1.80021273      -0.00014955       0.00003746      -0.00012270
O       -7.02671218       6.36741164       0.50385423      -0.00020631       0.00006898      -0.00005350
H       -8.24626446       7.77251686       2.21283455      -0.00012281      -0.00005870       0.00011273
H       -7.74249105       6.69304907      -0.09454972       0.00000928      -0.00002848      -0.00009796
