14
Properties=species:S:1:pos:R:3:forces:R:3 -2771.44892=T energy=-38103.054192371426 free_energy=-38103.054192371426 pbc="F F F"
S       -8.16391595       1.70591216      -4.65321966       0.00022187      -0.00015479      -0.00008307
O       -8.02998196       0.26423103      -4.73599334      -0.00001794       0.00004303      -0.00059938
O       -8.97145521       2.42190700      -5.59625418      -0.00018251       0.00043404       0.00020567
O       -8.70376965       1.94836316      -3.15996541       0.00017576      -0.00031349       0.00014246
O       -6.74643976       2.38712275      -4.61104141       0.00023745       0.00007547      -0.00015935
H       -8.67570837       2.90134478      -2.97563637      -0.00024696      -0.00044032       0.00027301
H       -6.11637607       1.87764372      -4.03371230      -0.00015805       0.00007865       0.00010327
S       -4.70822387      -0.34502952      -3.57120660      -0.00053129       0.00037822       0.00000418
O       -4.05719107      -0.79175162      -4.77322371       0.00043797      -0.00070673      -0.00036466
O       -4.86349714       1.07670669      -3.32664374       0.00035533      -0.00002462      -0.00039071
O       -6.09532873      -1.06219246      -3.38099132      -0.00039604       0.00000471      -0.00001785
O       -3.95025664      -0.88834265      -2.28311448      -0.00010267       0.00059206       0.00000341
H       -6.75100947      -0.68272584      -4.01951010       0.00020994       0.00029507       0.00048294
H       -3.79675254      -1.84366575      -2.38397213      -0.00000317      -0.00026128       0.00040000
