14
Properties=species:S:1:pos:R:3:forces:R:3 -2771.43006=T energy=-38103.05859782383 free_energy=-38103.05859782383 pbc="F F F"
S       -6.10396638       4.77415016       1.13865416      -0.00031611       0.00035725       0.00009210
O       -4.92210820       5.60030128       0.97594689      -0.00005710       0.00010806       0.00037727
O       -7.38594537       5.37010215       1.37254465       0.00041258      -0.00008997       0.00008613
O       -6.12783130       3.89507785      -0.20359529      -0.00055835       0.00017956       0.00011596
O       -5.86076048       3.68537632       2.24735954      -0.00017549      -0.00016880      -0.00002657
H       -6.79517845       3.19741462      -0.10220059       0.00092410       0.00013310       0.00017278
H       -4.97299439       3.24811516       2.13431111      -0.00010983      -0.00012614      -0.00016962
S       -2.37131502       3.11438618       1.54989664       0.00000809      -0.00007676      -0.00006633
O       -3.49445757       2.55056843       2.29418431      -0.00003600      -0.00005007      -0.00013816
O       -2.10652809       2.64657312       0.22433377       0.00042582      -0.00039000       0.00000107
O       -2.47042902       4.68615957       1.62654347       0.00001307      -0.00015792      -0.00041363
O       -1.05265858       2.91157158       2.41890067      -0.00014630       0.00017703       0.00008559
H       -3.32077814       4.98949092       1.22174767      -0.00010800      -0.00025728      -0.00020140
H       -1.15545012       3.38405692       3.26314763      -0.00027642       0.00036223       0.00008500
