14
Properties=species:S:1:pos:R:3:forces:R:3 -2771.45153=T energy=-38103.05420494135 free_energy=-38103.05420494135 pbc="F F F"
S       -0.95305933      -6.73812526     -10.69117848      -0.00002845       0.00014755       0.00014167
O       -2.35557603      -6.37425923     -10.75334488       0.00012505      -0.00001507       0.00010851
O       -0.08411041      -6.14285086      -9.71922490      -0.00005436      -0.00002366      -0.00003862
O       -0.98625410      -8.33333532     -10.50600878       0.00014909      -0.00018084      -0.00003649
O       -0.28197892      -6.57936103     -12.10521042      -0.00007077      -0.00005445      -0.00021694
H       -0.08169993      -8.67181650     -10.60667368      -0.00020145       0.00012015       0.00002232
H       -0.88299367      -6.90112564     -12.82981405       0.00008605       0.00000433       0.00014660
S       -3.14663052      -6.64465975     -14.22664422       0.00009497      -0.00030769      -0.00003035
O       -3.37580570      -5.26913746     -14.57822670       0.00004202       0.00020003      -0.00001639
O       -1.78945734      -7.15568038     -14.18047773      -0.00003874       0.00018477       0.00000674
O       -3.89070368      -7.01707179     -12.89158626      -0.00003758      -0.00003982      -0.00008780
O       -3.90262769      -7.61814414     -15.23147245       0.00054235      -0.00026074       0.00001109
H       -3.40852153      -6.61604415     -12.12457949       0.00005636       0.00002384       0.00003847
H       -4.82616757      -7.32637226     -15.32252235      -0.00066463       0.00020150      -0.00004889
