14
Properties=species:S:1:pos:R:3:forces:R:3 -2771.41354=T energy=-38103.18652097445 free_energy=-38103.18652097445 pbc="F F F"
S       12.63597578       7.26673528     -19.07204357      -0.00006051       0.00010559       0.00013160
O       13.88335140       6.91137854     -18.40353322      -0.00019097      -0.00018477      -0.00001955
O       12.68535187       8.07243469     -20.25474771       0.00013077       0.00044185      -0.00005984
O       11.88001797       5.87429005     -19.38774947      -0.00054558       0.00020024      -0.00046057
O       11.62415782       7.86704232     -18.05064789      -0.00033502       0.00044093      -0.00013061
H       12.32689681       5.43841919     -20.13459426       0.00027642       0.00009393      -0.00026418
H       11.56575326       7.30355289     -17.23348351      -0.00037692       0.00005772      -0.00026482
S       12.40437680       5.30229532     -15.62676573       0.00011249       0.00008363       0.00014315
O       11.57947270       6.50236467     -15.78254497       0.00006807      -0.00008059      -0.00027752
O       12.44178339       4.63293060     -14.36612333      -0.00019455       0.00028932       0.00035292
O       11.91778669       4.24758985     -16.71501646       0.00037701      -0.00031017       0.00032234
O       13.87186164       5.64124860     -16.07779949       0.00039269      -0.00007349       0.00030067
H       11.88226096       4.67827878     -17.59312452      -0.00013923      -0.00028991       0.00013498
H       13.87414115       6.17042976     -16.91832961       0.00048522      -0.00077455       0.00009128
