14
Properties=species:S:1:pos:R:3:forces:R:3 -2771.41810=T energy=-38103.3036297374 free_energy=-38103.3036297374 pbc="F F F"
S        9.19588579       7.27549215     -13.86208216      -0.00020604      -0.00003955       0.00007479
O       10.04036445       6.94100699     -15.01493023       0.00011027      -0.00019515      -0.00017262
O        9.71590341       7.05036307     -12.54640899       0.00011681       0.00001259       0.00015068
O        8.71705208       8.73701105     -14.00071093      -0.00012842       0.00004315       0.00013393
O        7.86298071       6.41609382     -13.99489304       0.00013448       0.00018482      -0.00016104
H        8.30422577       8.95883472     -14.99545673       0.00011127      -0.00014414       0.00001411
H        7.46256238       6.56251432     -14.88572174       0.00005052      -0.00002441       0.00004295
S        7.64566192       8.19656296     -17.04742993      -0.00018718      -0.00009313      -0.00025485
O        7.79857383       9.33588756     -16.12458797      -0.00024918       0.00008675       0.00016828
O        6.77319957       7.13631074     -16.61018101       0.00009784       0.00031292       0.00013565
O        7.18238427       8.87326781     -18.38126383      -0.00008213       0.00003944      -0.00002870
O        9.05586616       7.65993368     -17.41330508       0.00023061      -0.00007877      -0.00033179
H        7.07260599       8.21676526     -19.09486124      -0.00000735      -0.00005176      -0.00012625
H        9.49879982       7.28862589     -16.59548346       0.00000860      -0.00005262       0.00035519
