14
Properties=species:S:1:pos:R:3:forces:R:3 -2771.43175=T energy=-38103.16760400703 free_energy=-38103.16760400703 pbc="F F F"
S        1.11870497      -2.39632030      -2.11754816      -0.00016178       0.00007040      -0.00014030
O        1.93246559      -2.86768689      -1.03095579       0.00050426      -0.00034755       0.00044250
O        1.79568775      -2.02935774      -3.35763660       0.00007915       0.00006461      -0.00022399
O       -0.07749581      -3.34729094      -2.43813162      -0.00013837       0.00011149      -0.00003807
O        0.22969398      -1.15775858      -1.66301791      -0.00030326       0.00046885       0.00009738
H        0.24485417      -4.13098253      -2.95707042       0.00001657      -0.00026236      -0.00016443
H        0.81623197      -0.41278402      -1.44005819      -0.00000621      -0.00009202      -0.00004732
S        1.26061604      -4.43379783      -5.54207709       0.00032097      -0.00013382      -0.00015879
O        0.79780668      -5.09670741      -4.32571072      -0.00012571       0.00000960       0.00024271
O        1.39277650      -5.17716460      -6.75599638      -0.00007084       0.00010188      -0.00011444
O        0.26711819      -3.21696369      -5.83328103      -0.00014564       0.00008959       0.00015917
O        2.62196820      -3.70637948      -5.23265042      -0.00008494      -0.00002583       0.00014561
H        0.24464994      -2.63769334      -5.04656357       0.00000514      -0.00011119      -0.00016936
H        2.51856414      -3.15076768      -4.41594583       0.00011066       0.00005644      -0.00003065
