14
Properties=species:S:1:pos:R:3:forces:R:3 -2771.42546=T energy=-38103.087848734314 free_energy=-38103.087848734314 pbc="F F F"
S       -9.68477031      -0.37774219      -0.18942607       0.00019523      -0.00036713       0.00075407
O      -10.13316058      -0.35772010      -1.55599694       0.00000393       0.00026965      -0.00082159
O       -9.58835642       0.86344271       0.55295846      -0.00010583      -0.00039297      -0.00027823
O      -10.49498694      -1.43431332       0.65042866      -0.00020039       0.00023755       0.00030122
O       -8.23460686      -1.02750031      -0.08704525      -0.00017953       0.00031997      -0.00010191
H      -11.40410488      -1.08315320       0.83534532       0.00004428       0.00011527      -0.00005143
H       -8.23596338      -1.87576487      -0.56284754      -0.00003996      -0.00000932       0.00012589
S      -12.92778235       0.97916863       1.89587325       0.00020818      -0.00041099       0.00029148
O      -12.82257370      -0.43075436       1.57649398       0.00035828      -0.00016177      -0.00009593
O      -13.57139111       1.87320372       0.97098165      -0.00027320       0.00044084      -0.00047302
O      -13.65419691       1.02301736       3.31220733      -0.00045465      -0.00012107       0.00042081
O      -11.51585413       1.53204680       2.31887022       0.00031266      -0.00005627      -0.00008728
H      -13.74654809       1.95064684       3.58952923      -0.00004013       0.00014066       0.00000125
H      -10.87353144       1.40396117       1.57387255       0.00017114      -0.00000451       0.00001449
