14
Properties=species:S:1:pos:R:3:forces:R:3 -2771.39951=T energy=-38103.08584930628 free_energy=-38103.08584930628 pbc="F F F"
S       11.79818592       2.30535843     -16.37680103      -0.00005934      -0.00014595      -0.00009762
O       11.24195184       2.39967550     -17.71280116       0.00036049       0.00020486       0.00021231
O       12.96107636       3.07993824     -16.03415863      -0.00025642       0.00025338       0.00061876
O       10.58470506       2.65947680     -15.41019581      -0.00028345      -0.00060575      -0.00057290
O       11.99852947       0.79238061     -15.99638505       0.00035769       0.00031447      -0.00003839
H       10.89760761       2.63494967     -14.48967009      -0.00021964       0.00010335       0.00025703
H       12.61192626       0.36176077     -16.65021095       0.00015658       0.00009813      -0.00021702
S       12.74564783      -0.50806977     -19.24641942      -0.00022642      -0.00005137       0.00031956
O       13.33265834      -0.56443294     -17.91146275       0.00023699       0.00013041      -0.00041604
O       11.61298064      -1.32840384     -19.54984543       0.00000679       0.00034148       0.00032276
O       12.50897482       1.00504734     -19.62066992      -0.00006573      -0.00006229      -0.00005664
O       13.88691915      -0.84281091     -20.30742269      -0.00009724      -0.00017834      -0.00012161
H       11.92612265       1.43732345     -18.94368272       0.00012545       0.00014620       0.00003461
H       14.59605421      -0.18174703     -20.22621625      -0.00003563      -0.00054854      -0.00024485
