14
Properties=species:S:1:pos:R:3:forces:R:3 -2771.44903=T energy=-38103.019985871855 free_energy=-38103.019985871855 pbc="F F F"
S       -9.64213542       2.83271725      -0.15565253       0.00028387      -0.00017749      -0.00060740
O       -8.62670676       2.71526964      -1.15869547      -0.00016105       0.00009954       0.00039065
O      -10.22273220       4.12670487       0.15495595       0.00019389       0.00003076       0.00010300
O      -10.77574724       1.79079907      -0.48091570      -0.00063474      -0.00007969       0.00051905
O       -9.09997359       2.32002745       1.26445007       0.00003658      -0.00008689       0.00009018
H      -11.51550651       1.85185276       0.17517281       0.00048681      -0.00004569      -0.00044730
H       -8.88684033       1.37597743       1.19261928      -0.00012299       0.00024642      -0.00009279
S      -13.27280914       3.15497605       1.82220153       0.00011983      -0.00006774       0.00005928
O      -12.98476480       2.03327761       0.94653578      -0.00006717      -0.00020421      -0.00013542
O      -14.62413813       3.47030788       2.17638905       0.00008625       0.00004059      -0.00009692
O      -12.40217423       2.83547931       3.13117432      -0.00000584       0.00052945       0.00021337
O      -12.59133790       4.46321513       1.27395117      -0.00045528       0.00022841       0.00011332
H      -12.36695438       3.63333998       3.68253794       0.00008308      -0.00040725      -0.00012184
H      -11.65801235       4.28808193       0.99178604       0.00015675      -0.00010626       0.00001294
