14
Properties=species:S:1:pos:R:3:forces:R:3 -2771.09696=T energy=-38102.69549060673 free_energy=-38102.69549060673 pbc="F F F"
S        5.87167130      -1.23334864      -0.36715972      -0.00007777      -0.00020242       0.00017123
O        6.14750506      -2.43867543      -1.08810399       0.00004399       0.00005162       0.00006586
O        5.16044599      -0.11448457      -0.94493936      -0.00017172       0.00006437      -0.00002093
O        5.13479823      -1.65905951       0.98853174       0.00017605       0.00013191      -0.00025293
O        7.23755737      -0.60705501       0.19738497       0.00002795      -0.00011544       0.00006788
H        5.00850975      -0.86917902       1.54209423       0.00001575       0.00000474      -0.00000593
H        7.88657675      -1.32237876       0.30472295      -0.00007285       0.00003180      -0.00001400
S        5.64530429       2.09770318      -3.92243838      -0.00024598       0.00021175      -0.00008647
O        6.72545126       1.29630054      -4.45085736      -0.00013757       0.00010347      -0.00002211
O        4.29778635       1.91130645      -4.38216516       0.00022936      -0.00005904      -0.00008705
O        5.71143767       2.09081223      -2.34245490      -0.00008929      -0.00062035       0.00037932
O        5.99261548       3.64610628      -4.15032960      -0.00008884      -0.00008988      -0.00017348
H        5.58503414       1.17357567      -1.99657453       0.00022389       0.00044771      -0.00003423
H        6.93373819       3.78584913      -3.94251567       0.00016654       0.00003967       0.00001283
