14
Properties=species:S:1:pos:R:3:forces:R:3 -2771.23414=T energy=-38102.883266109646 free_energy=-38102.883266109646 pbc="F F F"
S       -9.56337049      -1.29962587      -6.66318092       0.00017954      -0.00019641       0.00006484
O       -9.06470707      -2.64320695      -6.54600968      -0.00002939      -0.00009871      -0.00005662
O      -10.21274206      -0.82644710      -7.85517249      -0.00011015      -0.00006056      -0.00005233
O      -10.58901318      -1.13297064      -5.41312998       0.00016274       0.00011867      -0.00009412
O       -8.45995452      -0.23832896      -6.28193547       0.00000240      -0.00027245       0.00005044
H      -10.88501728      -0.20592627      -5.37698901      -0.00011194      -0.00027145      -0.00037998
H       -8.12049246      -0.38764305      -5.36147100       0.00000476      -0.00008349       0.00016859
S       -8.34968681      -0.29407818      -2.62858131      -0.00032202       0.00009272      -0.00009852
O       -9.22152682       0.76113355      -2.21640791       0.00016928       0.00024116       0.00060821
O       -7.53550412      -0.14123798      -3.82585114      -0.00028467       0.00074202       0.00050235
O       -7.40044467      -0.66594633      -1.40857350       0.00018008      -0.00008987      -0.00070074
O       -9.11861421      -1.68388460      -2.73971165       0.00042331      -0.00010362       0.00014743
H       -6.94845205      -1.50555949      -1.60187706      -0.00029227      -0.00060783      -0.00019101
H       -9.69958889      -1.65582765      -3.52996492       0.00002842       0.00058991       0.00003123
