14
Properties=species:S:1:pos:R:3:forces:R:3 -2771.19125=T energy=-38102.69973257416 free_energy=-38102.69973257416 pbc="F F F"
S      -12.78597877       0.14118408     -12.68283074       0.00019426      -0.00016996       0.00023750
O      -11.96474469      -0.80230665     -11.95357825      -0.00032008       0.00020719       0.00016975
O      -12.69087844       0.30686579     -14.10291541       0.00013092      -0.00001714      -0.00010002
O      -14.28717989      -0.23806655     -12.26699956      -0.00071308       0.00036703      -0.00020465
O      -12.61817812       1.58755065     -12.02256282       0.00017348       0.00040315       0.00025240
H      -14.90323340       0.27845615     -12.81315649       0.00020258      -0.00076105      -0.00058600
H      -12.43455383       1.46877532     -11.06622157      -0.00010328       0.00004120       0.00009994
S      -10.01475283       0.14907897      -8.79606485      -0.00005060       0.00020915      -0.00004746
O      -10.08668735       1.09809635      -7.71799820       0.00024575      -0.00011516       0.00017667
O       -9.59548048      -1.21183703      -8.60124515       0.00020021      -0.00034261      -0.00002384
O      -11.41346802       0.19901761      -9.55057268       0.00005570       0.00000200       0.00017914
O       -9.03731843       0.72653942      -9.94297526       0.00008600      -0.00026749      -0.00016345
H      -11.42398594      -0.45615090     -10.29439724      -0.00010078       0.00009590       0.00023184
H       -9.35124842       1.61182314     -10.19402684      -0.00000109       0.00034795      -0.00022135
