14
Properties=species:S:1:pos:R:3:forces:R:3 -2771.48751=T energy=-38103.289131045734 free_energy=-38103.289131045734 pbc="F F F"
S       -9.72675354       5.28556247      -7.45003655      -0.00009954       0.00035610       0.00028319
O       -9.36683333       4.43873533      -8.58718843       0.00018618       0.00035572       0.00039423
O       -9.38445002       6.67310099      -7.47236617       0.00072416       0.00009763      -0.00007552
O      -11.28360735       5.16167784      -7.21947672      -0.00033677       0.00012106      -0.00008946
O       -9.10384053       4.64478653      -6.14641235       0.00008056      -0.00036746      -0.00030529
H      -11.56190424       4.20904191      -7.22431741      -0.00037235       0.00003515      -0.00056471
H       -9.30616779       3.67424336      -6.10530958      -0.00016636      -0.00042387      -0.00002678
S      -10.74431278       1.71774098      -7.12834787       0.00001524       0.00003719       0.00025791
O       -9.78976654       1.95695553      -6.05781851       0.00028288       0.00015627      -0.00007975
O      -11.95546343       2.50790973      -7.14097227      -0.00015485      -0.00040311      -0.00010788
O      -10.01193144       1.80835998      -8.51026779      -0.00059485      -0.00001639       0.00024292
O      -11.19956544       0.20079521      -7.13348443       0.00066909      -0.00003436       0.00004047
H       -9.69991348       2.74491157      -8.63119123      -0.00023321      -0.00020544       0.00005294
H      -10.41822507      -0.37463979      -7.20779565      -0.00000019       0.00029177      -0.00002217
