14
Properties=species:S:1:pos:R:3:forces:R:3 -2771.42808=T energy=-38103.05860248687 free_energy=-38103.05860248687 pbc="F F F"
S       10.99045043       5.70529967     -21.00471969       0.00006594      -0.00003798      -0.00016901
O       10.82439955       4.72586888     -22.03739145       0.00000639      -0.00022864      -0.00011766
O        9.84378327       6.40814232     -20.45979266      -0.00028974       0.00025272       0.00004888
O       11.83461032       5.05724943     -19.84660726       0.00009009      -0.00013614       0.00015318
O       11.94877334       6.89217239     -21.50260023      -0.00058976       0.00036865       0.00012960
H       11.96802547       5.69820529     -19.09596171       0.00004787      -0.00010569       0.00002456
H       12.81365248       6.51421085     -21.72938295       0.00067464      -0.00022840      -0.00016772
S       11.30419141       7.65521203     -17.40491809       0.00014885       0.00021566      -0.00026089
O       11.78446995       8.94238950     -17.80315043      -0.00014248      -0.00020802       0.00021541
O       12.12869148       6.47658068     -17.65855240      -0.00003292       0.00008094       0.00003976
O       10.98447813       7.70683091     -15.84597370       0.00016794       0.00017682       0.00000747
O        9.84991395       7.36191453     -17.93891396      -0.00006631       0.00009452       0.00022882
H       10.49229977       6.90497560     -15.59828862      -0.00009972      -0.00017756       0.00002294
H        9.87883231       7.17977652     -18.91099832       0.00001943      -0.00006680      -0.00015547
