14
Properties=species:S:1:pos:R:3:forces:R:3 -2771.23069=T energy=-38102.88327426995 free_energy=-38102.88327426995 pbc="F F F"
S       -5.06402691      -0.44656155      -4.48121470       0.00001733       0.00001056       0.00004333
O       -6.36740566      -0.74991246      -3.97860575      -0.00008249      -0.00002244      -0.00001949
O       -4.23768570      -1.50241222      -5.04861260       0.00002933      -0.00001934      -0.00007176
O       -5.19720024       0.72664777      -5.54595027       0.00002506       0.00000858      -0.00002411
O       -4.18476840       0.33215750      -3.40617189       0.00003949       0.00000551       0.00005388
H       -4.31219383       1.08069645      -5.74096320      -0.00003393      -0.00000699       0.00000975
H       -3.92676969      -0.29795244      -2.69962033      -0.00000955       0.00011236      -0.00000566
S       -2.32982569      -2.98470084      -2.27932524      -0.00002275       0.00005447      -0.00008367
O       -1.23459735      -2.07205343      -2.46683075       0.00000310       0.00003672       0.00001732
O       -2.18944870      -4.20364357      -1.53039557      -0.00002396      -0.00010502       0.00003809
O       -3.49849661      -2.08671491      -1.59358152       0.00015497       0.00007266      -0.00003727
O       -3.01272468      -3.35781008      -3.65175901      -0.00003337       0.00010344       0.00003672
H       -4.30745812      -2.62542340      -1.53297344      -0.00007829      -0.00010819      -0.00000799
H       -3.33369145      -2.54711533      -4.12553488       0.00001519      -0.00014253       0.00005087
