14
Properties=species:S:1:pos:R:3:forces:R:3 -2771.14953=T energy=-38102.666235464036 free_energy=-38102.666235464036 pbc="F F F"
S       -9.49285236      -0.03038018       0.83467338      -0.00028571       0.00017023       0.00027948
O       -9.48320071      -0.69149397      -0.43487193      -0.00043488      -0.00006318       0.00036824
O      -10.70956713       0.36603370       1.50809309       0.00021198       0.00027201       0.00024843
O       -8.62777807      -0.93025205       1.83702507       0.00034751       0.00014847      -0.00020415
O       -8.60780906       1.30699629       0.76385546      -0.00052371       0.00019372      -0.00078936
H       -8.54381612      -0.46519255       2.68734659       0.00037936       0.00044303      -0.00002154
H       -7.94176409       1.20235335       0.06403361       0.00054081      -0.00067186      -0.00000305
S      -13.67803296       2.54509402       0.74449415       0.00003101       0.00018474      -0.00018828
O      -13.39953863       2.44699072      -0.66315579       0.00044960       0.00035310       0.00047946
O      -14.41792967       3.64346908       1.30583309       0.00022304       0.00012386       0.00005436
O      -14.43667985       1.16360970       1.10754665      -0.00034157       0.00013840      -0.00072473
O      -12.35580917       2.40677871       1.60180076      -0.00037848      -0.00046175       0.00035302
H      -14.54288299       1.11836365       2.07338431       0.00006353      -0.00036523      -0.00024883
H      -11.80716747       1.64170044       1.30120276      -0.00028246      -0.00046543       0.00039684
