14
Properties=species:S:1:pos:R:3:forces:R:3 -2771.10119=T energy=-38102.652506198385 free_energy=-38102.652506198385 pbc="F F F"
S       -5.62726562      -7.29573221     -15.92699870      -0.00013883       0.00018429       0.00002350
O       -4.97476953      -8.52379061     -16.26526677       0.00007945      -0.00039315      -0.00008744
O       -6.27034256      -6.45204415     -16.90933349       0.00001574       0.00005561       0.00007305
O       -6.68292020      -7.62754873     -14.77109189      -0.00007242       0.00021785       0.00008620
O       -4.60616857      -6.32720584     -15.15481578       0.00007188       0.00024289      -0.00003953
H       -7.05584236      -6.79425509     -14.43495228       0.00009184      -0.00018893      -0.00002271
H       -3.90250696      -6.86925508     -14.76050883      -0.00001675      -0.00023176       0.00000036
S       -6.00597004      -4.01522556     -19.72021257      -0.00012327      -0.00008013      -0.00000934
O       -5.08757919      -3.37990473     -20.62683789      -0.00006533      -0.00014436       0.00016034
O       -7.29210760      -4.49852234     -20.14546193       0.00017154      -0.00000352      -0.00009263
O       -5.18775871      -5.14100977     -18.96748146      -0.00021976      -0.00007054       0.00028244
O       -6.33354415      -2.99539986     -18.50862699      -0.00008730      -0.00002545      -0.00013971
H       -5.72989840      -5.58238957     -18.26690001       0.00029225       0.00032058      -0.00030538
H       -5.49207579      -2.71280839     -18.11087762       0.00000100       0.00011656       0.00007094
