14
Properties=species:S:1:pos:R:3:forces:R:3 -2771.03073=T energy=-38102.8757453448 free_energy=-38102.8757453448 pbc="F F F"
S      -10.54245801      -2.27251486      -1.72181261      -0.00018333      -0.00023188       0.00079136
O      -10.11857869      -2.85525145      -2.95997963      -0.00009900       0.00017965       0.00007796
O      -11.34239869      -1.06879879      -1.68256326       0.00022286       0.00013173      -0.00042534
O      -11.25534327      -3.40643977      -0.87197944       0.00043880      -0.00012237      -0.00061516
O       -9.25567852      -1.94261488      -0.81172210      -0.00064725       0.00060531       0.00036712
H      -11.46129310      -3.04447789       0.01640553      -0.00013600       0.00010470       0.00045313
H       -8.53121582      -2.52759480      -1.08945699       0.00051785      -0.00062580      -0.00054662
S      -12.31181765      -0.46639471       1.79539988       0.00012283       0.00009222      -0.00008321
O      -13.59846229      -1.10892626       1.77085847      -0.00026226       0.00000072      -0.00010768
O      -11.91611325       0.40096253       2.87097323      -0.00003421       0.00024843       0.00010544
O      -11.24282381      -1.67700733       1.67176149      -0.00009665      -0.00015625       0.00000933
O      -12.04190208       0.31713083       0.44748216      -0.00019232      -0.00005528       0.00012135
H      -10.37597207      -1.32705482       1.38987809       0.00035071      -0.00014347      -0.00025569
H      -12.02668516      -0.30234808      -0.32241898      -0.00000180      -0.00002777       0.00010788
