14
Properties=species:S:1:pos:R:3:forces:R:3 -2771.38652=T energy=-38103.12343579617 free_energy=-38103.12343579617 pbc="F F F"
S       11.23117923       8.94160827     -17.16455305       0.00003957      -0.00016765       0.00000780
O       12.22449567       7.93089154     -17.51590268      -0.00001860       0.00009966      -0.00000571
O       10.92371953       9.99092293     -18.08485035       0.00000840       0.00009811      -0.00009835
O        9.89863662       8.21647016     -16.74434366      -0.00004636      -0.00001156       0.00009167
O       11.70468208       9.62559796     -15.79995760       0.00002117       0.00000252       0.00001023
H       10.10345253       7.51352714     -16.07415319       0.00001678      -0.00002607      -0.00002115
H       11.79992969       8.92752216     -15.12416152      -0.00001599       0.00000197       0.00001235
S       11.85576225       5.77174038     -14.78872724      -0.00002805       0.00020427       0.00005110
O       11.50753470       4.49990833     -15.34188899      -0.00003609      -0.00015986      -0.00013012
O       10.83850882       6.81765947     -14.69396846       0.00003037      -0.00001442       0.00003013
O       12.44840191       5.52653042     -13.33223964       0.00004160       0.00022755       0.00015208
O       13.12595261       6.40494279     -15.47454109       0.00017211       0.00002547       0.00001630
H       12.79972007       6.36807458     -12.99458390      -0.00008327      -0.00021820      -0.00010957
H       12.85443918       6.81959751     -16.33417148      -0.00010130      -0.00006156      -0.00000673
