14
Properties=species:S:1:pos:R:3:forces:R:3 -2771.22781=T energy=-38102.86315940956 free_energy=-38102.86315940956 pbc="F F F"
S       -2.42460703       3.57133504       2.87140454       0.00002988       0.00025322       0.00020695
O       -1.58999531       2.63865541       2.14471342       0.00017309      -0.00015545       0.00030586
O       -3.16551371       4.57909204       2.16475894       0.00039470      -0.00038129       0.00010242
O       -3.38005826       2.66231324       3.75583647      -0.00001272       0.00021705       0.00008509
O       -1.56968748       4.23280699       4.03188182      -0.00019670       0.00005567       0.00054711
H       -3.96276706       3.23192107       4.28756823      -0.00080530       0.00002598      -0.00055427
H       -0.87275766       4.77938183       3.60894648       0.00000693      -0.00002716       0.00039373
S        1.53443307       4.46177676       1.55318566       0.00007153       0.00010901      -0.00008220
O        2.96207649       4.29346468       1.58233684      -0.00007868       0.00015533      -0.00017956
O        0.88867340       5.38996002       0.66581371       0.00004685      -0.00012302       0.00006425
O        0.89387441       3.02507024       1.44974542       0.00004138       0.00023556      -0.00030832
O        1.03362115       4.90412873       3.03925233       0.00006252      -0.00023838      -0.00014450
H       -0.08233277       3.05883618       1.62821276       0.00020479      -0.00016508      -0.00007880
H        1.40416899       4.27668252       3.68659957       0.00006210       0.00003858      -0.00035786
