14
Properties=species:S:1:pos:R:3:forces:R:3 -2771.40919=T energy=-38103.05860248687 free_energy=-38103.05860248687 pbc="F F F"
S      -13.51033816       7.29205436      -0.64850675       0.00000585      -0.00019457      -0.00002356
O      -13.11922935       5.91677623      -0.60703110      -0.00002003       0.00019860       0.00000069
O      -13.10054918       8.11615778      -1.78262529       0.00001594      -0.00004458       0.00003642
O      -15.09738101       7.35875566      -0.53877168      -0.00004172       0.00010982      -0.00000803
O      -13.14513371       8.06364253       0.67715678       0.00015521       0.00004881       0.00001541
H      -15.36432184       8.28158605      -0.38483247       0.00003987      -0.00006885      -0.00000882
H      -12.16915146       8.22134418       0.71663908      -0.00012227      -0.00004949      -0.00001908
S       -9.88578928       9.21842386      -0.54262474      -0.00000799      -0.00000091      -0.00014907
O      -10.60062272       8.95255495       0.69192695      -0.00009537      -0.00002503       0.00000966
O       -8.83496948      10.19174979      -0.58376292       0.00007224       0.00006890      -0.00000018
O       -9.33236742       7.77339086      -0.96753033       0.00010963      -0.00005567      -0.00016095
O      -10.89886256       9.54259429      -1.70125536       0.00004148       0.00001940       0.00010086
H       -8.98320016       7.83160489      -1.87142684      -0.00010632       0.00004363       0.00019344
H      -11.65766096       8.89740750      -1.70730440      -0.00004647      -0.00005003       0.00001326
