14
Properties=species:S:1:pos:R:3:forces:R:3 -2771.45496=T energy=-38103.05420468792 free_energy=-38103.05420468792 pbc="F F F"
S      -11.16472766       4.00775498      -6.62667857      -0.00018499       0.00017923       0.00025634
O      -10.95854980       4.23903657      -5.22734836       0.00033323       0.00007933      -0.00061941
O      -10.24756954       3.17794709      -7.38401971       0.00030559       0.00020611       0.00021517
O      -12.64444803       3.51141573      -6.82444341      -0.00050005       0.00010462       0.00019252
O      -11.16142543       5.39992640      -7.42791821       0.00019861      -0.00073794      -0.00002886
H      -12.81723274       3.25422709      -7.76983311       0.00024918      -0.00001290      -0.00038697
H      -11.86822224       5.96090897      -7.06927391      -0.00035497       0.00033483       0.00041137
S      -12.33299299       1.63641121      -9.84090008      -0.00029928       0.00021141       0.00035235
O      -13.24697264       2.56448938      -9.20178704      -0.00034678       0.00042367       0.00041327
O      -12.30678008       0.26177093      -9.41914626      -0.00001702      -0.00060773       0.00011846
O      -12.67614311       1.74560263     -11.38983425      -0.00005318       0.00044441       0.00026926
O      -10.88514159       2.25149318      -9.84928945       0.00015524      -0.00019183      -0.00058258
H      -12.10510200       1.13387594     -11.88586451       0.00059183      -0.00038683      -0.00063375
H      -10.59419025       2.41799730      -8.91694749      -0.00007728      -0.00004636       0.00002304
