14
Properties=species:S:1:pos:R:3:forces:R:3 -2771.12711=T energy=-38102.74410101673 free_energy=-38102.74410101673 pbc="F F F"
S       11.26704185       8.23077769     -16.39667729      -0.00012478      -0.00002269       0.00020967
O       11.47022727       6.80721758     -16.43028343       0.00015210      -0.00003719       0.00000721
O       11.50788751       9.05054609     -17.56036323       0.00005945       0.00006044      -0.00020146
O        9.79728385       8.53696046     -15.83541696       0.00023484       0.00024834       0.00029022
O       12.09689166       8.88917881     -15.21342411      -0.00002253       0.00021903      -0.00021410
H        9.15188310       8.00150540     -16.33080258      -0.00025473      -0.00032873      -0.00029160
H       12.17678306       8.24935821     -14.48444080      -0.00002532      -0.00017202       0.00021256
S       11.67423998       8.76289083     -21.26937454      -0.00001316       0.00033706       0.00009147
O       10.81368450       7.60199780     -21.27009569      -0.00007617       0.00010228       0.00000136
O       11.13591223      10.07851692     -21.47266045       0.00001147      -0.00013602       0.00006261
O       12.60864897       8.72342615     -19.99370027      -0.00013763      -0.00010979       0.00001508
O       12.81276273       8.56121333     -22.37972382       0.00011772      -0.00019322       0.00000632
H       12.06817374       8.77781941     -19.16701921       0.00009927       0.00003678      -0.00010904
H       13.12658401       7.64027745     -22.33722540      -0.00002046      -0.00000433      -0.00008027
