14
Properties=species:S:1:pos:R:3:forces:R:3 -2771.17364=T energy=-38102.695101116646 free_energy=-38102.695101116646 pbc="F F F"
S      -12.74729190       0.88581713      -9.25235390      -0.00002090       0.00008524       0.00022174
O      -12.72230642      -0.14758672      -8.23864774      -0.00057285       0.00047636       0.00026834
O      -12.96052843       0.59632152     -10.63960599      -0.00047192      -0.00021738      -0.00029182
O      -13.85050239       1.92640527      -8.73277649       0.00011595       0.00093588      -0.00002798
O      -11.40326422       1.74327328      -9.13834864       0.00024280      -0.00021093      -0.00029701
H      -14.05586059       2.54845830      -9.45084094       0.00009616       0.00002726      -0.00055045
H      -11.06617659       1.66584103      -8.21838185       0.00018655      -0.00042348      -0.00022961
S      -10.57378060      -0.31285371      -5.03977386      -0.00007368      -0.00021145       0.00006647
O       -9.40582740       0.34747537      -4.51902399      -0.00046134       0.00006986      -0.00014383
O      -11.72325669      -0.59995138      -4.22520021       0.00035977      -0.00089896       0.00000459
O      -11.00349874       0.45838462      -6.35754444      -0.00037631      -0.00051931       0.00020587
O      -10.13827841      -1.74078176      -5.65945715       0.00084533       0.00033650      -0.00034228
H      -11.79138079       0.01841055      -6.77036836      -0.00026583       0.00012179       0.00032395
H       -9.43362751      -1.58544222      -6.31129082       0.00039629       0.00042835       0.00079213
