14
Properties=species:S:1:pos:R:3:forces:R:3 -2771.42853=T energy=-38103.05860228412 free_energy=-38103.05860228412 pbc="F F F"
S       14.54423816      -1.48378518     -18.57384778      -0.00021024       0.00011850       0.00014609
O       14.74075687      -2.38609567     -19.69322799       0.00002462       0.00008571       0.00004196
O       13.99301105      -0.17674866     -18.77657587       0.00016686      -0.00024462      -0.00002974
O       13.62413688      -2.33406854     -17.57116212      -0.00008055       0.00024348       0.00049721
O       15.87842070      -1.33073430     -17.75510063       0.00004838       0.00020418      -0.00008827
H       13.58285182      -1.86703365     -16.72114654       0.00008118      -0.00028647      -0.00056699
H       16.30801742      -2.21546662     -17.59771658       0.00002527      -0.00010409      -0.00004580
S       17.05365635      -4.71076940     -18.18765694      -0.00041518      -0.00022776      -0.00021241
O       16.17678141      -5.70963503     -17.65904528       0.00013626      -0.00002015       0.00003237
O       17.31065899      -3.50260757     -17.40819484       0.00007170       0.00026226       0.00019903
O       18.45366474      -5.39930219     -18.50557669      -0.00011054      -0.00047134       0.00017772
O       16.66123859      -4.27687223     -19.65185459       0.00008252      -0.00003685       0.00006363
H       18.99639458      -4.78370571     -19.02810042       0.00023875       0.00040437      -0.00017656
H       15.84620000      -3.71636061     -19.62956971      -0.00005917       0.00007261      -0.00003815
