14
Properties=species:S:1:pos:R:3:forces:R:3 -2771.15998=T energy=-38103.05860177727 free_energy=-38103.05860177727 pbc="F F F"
S       -2.90555893      -7.07839503     -14.28950842      -0.00028129      -0.00003356       0.00023296
O       -4.07835601      -6.82025723     -13.45811512       0.00013494       0.00008613      -0.00016820
O       -2.50450589      -8.43000806     -14.53108729       0.00010133      -0.00012827      -0.00004721
O       -3.05346355      -6.24570584     -15.62024622       0.00000979       0.00005716      -0.00003868
O       -1.66979804      -6.30166648     -13.65328085       0.00013512      -0.00041736      -0.00006253
H       -3.87073499      -6.52515428     -16.10288846       0.00003570       0.00003313       0.00001214
H       -1.86410588      -5.34836349     -13.65054707      -0.00012148       0.00041485       0.00003431
S       -6.62646675      -6.96434354     -16.02206249       0.00038262       0.00005726       0.00001844
O       -5.45738458      -6.58185316     -16.79196095      -0.00003469       0.00015372       0.00000727
O       -7.94048658      -6.58932488     -16.45331633      -0.00031292       0.00009675      -0.00011650
O       -6.49920143      -8.56105429     -15.92594873       0.00032294      -0.00013673      -0.00025479
O       -6.45975888      -6.52452858     -14.52119720      -0.00009542      -0.00001462      -0.00006257
H       -7.15235226      -8.88335314     -15.28421382      -0.00039682      -0.00018550       0.00035475
H       -5.55370741      -6.75412532     -14.17705409       0.00012033       0.00001705       0.00009072
