14
Properties=species:S:1:pos:R:3:forces:R:3 -2771.42722=T energy=-38103.05860192933 free_energy=-38103.05860192933 pbc="F F F"
S      -14.94770628       1.78676575     -13.76569516      -0.00005069      -0.00019976       0.00017401
O      -13.56779581       1.47378212     -14.08769380       0.00015545      -0.00001335       0.00034359
O      -15.75749866       2.54162755     -14.67548430       0.00008392       0.00010628       0.00024867
O      -15.59946900       0.34588142     -13.49360663      -0.00038827       0.00030905      -0.00009555
O      -15.03739842       2.46705907     -12.35041522       0.00036608      -0.00017244      -0.00035399
H      -16.48106303       0.47519673     -13.10836232       0.00033121      -0.00031067      -0.00006566
H      -14.47923388       1.98325547     -11.68221231      -0.00043322       0.00007139      -0.00001802
S      -12.36786142       0.60964853     -10.79603328       0.00038348       0.00015274       0.00073325
O      -12.57929731      -0.80457874     -10.75930142       0.00015973       0.00086427      -0.00027272
O      -13.47574653       1.50500454     -10.47310813       0.00086221      -0.00025201      -0.00018071
O      -11.15582620       0.95430015      -9.82264962      -0.00074160       0.00036047      -0.00045767
O      -11.72835715       1.08923270     -12.15514335      -0.00014547      -0.00021326       0.00017813
H      -10.88421735       1.87660398      -9.97157381      -0.00025064      -0.00068890      -0.00001910
H      -12.40484539       1.05370826     -12.87628278      -0.00033202      -0.00001358      -0.00021430
