14
Properties=species:S:1:pos:R:3:forces:R:3 -2771.13844=T energy=-38102.88331659206 free_energy=-38102.88331659206 pbc="F F F"
S       -5.70860446      -4.31667007     -19.53978603       0.00000476      -0.00040273       0.00012042
O       -5.52640132      -4.13371297     -18.13394293      -0.00008249       0.00000267       0.00027585
O       -5.57727559      -3.18310515     -20.44476023       0.00004309       0.00047585      -0.00043464
O       -4.73257651      -5.47418053     -20.02522671      -0.00005259      -0.00012057      -0.00014900
O       -7.08730522      -5.04148627     -19.86860604       0.00005382       0.00003612       0.00004731
H       -4.99252331      -5.75259237     -20.92037302       0.00005025       0.00002520       0.00011534
H       -7.82166713      -4.40557486     -19.72975606      -0.00002475       0.00001752       0.00002118
S       -8.96794140      -1.81074458     -20.72607502       0.00005127       0.00000022      -0.00025956
O       -9.32023968      -2.80740584     -21.70183084      -0.00008053      -0.00014734      -0.00021577
O       -9.73025934      -0.60382735     -20.55836334      -0.00016078       0.00016201       0.00006777
O       -8.94628260      -2.61113506     -19.31325599      -0.00026144      -0.00045636      -0.00028625
O       -7.45268508      -1.38911136     -20.85241928       0.00000323       0.00017302       0.00006944
H       -8.58059274      -2.02346488     -18.62895904       0.00033291       0.00039279       0.00064223
H       -6.85536083      -2.17889160     -20.79064527       0.00012326      -0.00015828      -0.00001440
