14
Properties=species:S:1:pos:R:3:forces:R:3 -2771.44796=T energy=-38103.11555334205 free_energy=-38103.11555334205 pbc="F F F"
S      -16.51809704       0.25932182     -13.13646134      -0.00011754       0.00006938      -0.00018284
O      -16.54531518      -0.67091120     -12.01785013       0.00012474      -0.00007772      -0.00002670
O      -16.38799347      -0.26123883     -14.47542441       0.00012612       0.00038511       0.00034177
O      -17.91795638       1.03482688     -13.02620381      -0.00003824      -0.00003594      -0.00034297
O      -15.52253121       1.39334227     -12.85617575      -0.00039534       0.00012710       0.00001992
H      -18.03205723       1.56746887     -13.83097214      -0.00006506      -0.00026193       0.00030839
H      -14.62538467       1.11907334     -12.25639344       0.00022526       0.00002475       0.00004837
S      -13.24257602      -0.16225574     -10.86389926       0.00004838       0.00001374      -0.00015362
O      -12.51799038      -1.19799683     -11.53095474       0.00004780      -0.00035369       0.00015086
O      -13.54247684       1.07854035     -11.60955839       0.00018805      -0.00020182      -0.00009227
O      -14.56544591      -0.66938220     -10.21723499      -0.00022336       0.00000217      -0.00024279
O      -12.48105074       0.38894584      -9.60322718       0.00008023       0.00011164      -0.00012483
H      -15.25623807      -0.86962102     -10.90746971       0.00021348       0.00012662       0.00016379
H      -12.25230009      -0.33498100      -8.99075978      -0.00021467       0.00007056       0.00013288
