14
Properties=species:S:1:pos:R:3:forces:R:3 -2771.09727=T energy=-38102.68719506859 free_energy=-38102.68719506859 pbc="F F F"
S      -10.32669958       6.24440932      -6.93053678       0.00017086       0.00011162       0.00024758
O      -10.64011040       5.83201747      -8.28080304      -0.00007069       0.00002325       0.00013995
O      -10.36318964       7.61318044      -6.51463160      -0.00032826       0.00001514      -0.00004560
O      -11.28408915       5.35028424      -6.00801894      -0.00003764       0.00014266       0.00026660
O       -8.88357807       5.67716813      -6.53331024       0.00028008      -0.00034605      -0.00038560
H      -11.26660524       5.70693238      -5.10450888       0.00005996      -0.00017553      -0.00038195
H       -8.81263372       4.74944087      -6.82008753      -0.00003751       0.00030106       0.00019222
S      -10.20126783       2.58855256     -10.13060132      -0.00002171       0.00024569      -0.00003360
O      -10.91059286       1.87467372      -9.09463572      -0.00021440      -0.00023270      -0.00004244
O      -10.87407361       3.03082325     -11.31921399      -0.00004279      -0.00004601      -0.00018764
O       -9.38213995       3.78000124      -9.48107337       0.00006959       0.00037919       0.00027746
O       -8.95819808       1.69584048     -10.60728564      -0.00008149      -0.00005856      -0.00026168
H      -10.00957844       4.47790793      -9.17288433       0.00015274      -0.00016603      -0.00010567
H       -8.58094881       1.24964476      -9.82814255       0.00010119      -0.00019387       0.00032008
