14
Properties=species:S:1:pos:R:3:forces:R:3 -2771.43747=T energy=-38103.126466464404 free_energy=-38103.126466464404 pbc="F F F"
S      -10.57190491       4.54854012       0.34426063      -0.00005298      -0.00013323      -0.00015898
O      -10.10301681       3.33202322      -0.26357811      -0.00004673      -0.00012946      -0.00031644
O      -11.95099399       4.95745751       0.16345042      -0.00018585       0.00002688       0.00009322
O      -10.20634429       4.58776552       1.87520439      -0.00003400      -0.00026330      -0.00007966
O       -9.70799642       5.78936155      -0.15667102       0.00008976       0.00005566      -0.00014237
H      -10.82133573       3.99261245       2.38016075       0.00002105      -0.00008008      -0.00016697
H       -8.76463744       5.57481862      -0.05757164       0.00001399       0.00021804       0.00063320
S      -13.41079457       3.28015228       3.01630869       0.00008040       0.00013272       0.00004491
O      -12.00859614       3.29214414       3.41682843      -0.00005317       0.00011948      -0.00002396
O      -13.92489897       2.07300042       2.42699341       0.00030780      -0.00006294       0.00004673
O      -14.29271559       3.70239719       4.27504080      -0.00031365       0.00025675       0.00013375
O      -13.73503761       4.55151262       2.17071317       0.00047332      -0.00015439      -0.00022846
H      -14.26065250       2.99219399       4.94096316       0.00007788       0.00000164       0.00000396
H      -13.16156050       4.58998711       1.36191064      -0.00037809       0.00001233       0.00016102
