14
Properties=species:S:1:pos:R:3:forces:R:3 -2771.42129=T energy=-38103.08784782198 free_energy=-38103.08784782198 pbc="F F F"
S       14.16736873       5.36656427     -17.94352822      -0.00003278      -0.00012442      -0.00005056
O       14.21364537       6.50836521     -18.83521701       0.00025422      -0.00017345      -0.00026095
O       14.23446961       4.03591344     -18.48559665       0.00011847       0.00019515       0.00020947
O       15.35386711       5.60898898     -16.90961616      -0.00025323      -0.00014651       0.00033513
O       12.94418893       5.51093843     -16.96311129      -0.00017819       0.00022795      -0.00031025
H       15.37029003       4.87467654     -16.27209343      -0.00016889      -0.00036112       0.00020791
H       12.10374788       5.56043348     -17.48770085       0.00024015       0.00032977      -0.00022343
S       10.69102008       6.85225069     -19.49703657       0.00013427      -0.00017496      -0.00048866
O       10.57698965       6.18216521     -20.76472445       0.00023836      -0.00011784       0.00060439
O       10.65273478       6.08038154     -18.27077385       0.00029616      -0.00013167      -0.00000191
O       11.94040996       7.80973226     -19.47994165      -0.00020301       0.00013953      -0.00013837
O        9.53602141       7.93608887     -19.33276471       0.00009727      -0.00019584       0.00038793
H       12.76918621       7.27098690     -19.39651318      -0.00029343       0.00035293      -0.00046923
H        9.51565291       8.49648140     -20.12743141      -0.00024936       0.00018033       0.00019837
