14
Properties=species:S:1:pos:R:3:forces:R:3 -2771.09531=T energy=-38102.66393590384 free_energy=-38102.66393590384 pbc="F F F"
S        8.95746380       4.60605476     -12.87367145       0.00068957      -0.00029757       0.00020539
O       10.03488997       3.66481512     -12.90574101      -0.00054264       0.00041735      -0.00004262
O        8.63107442       5.46161830     -13.99319568       0.00005138      -0.00007021       0.00000304
O        7.64289286       3.79955188     -12.44636916       0.00056969      -0.00027779      -0.00008437
O        9.13619798       5.60515969     -11.62946628      -0.00044622       0.00003630      -0.00046574
H        6.92051768       4.43143174     -12.28790757      -0.00051216       0.00042944       0.00018027
H        9.67878200       5.16532556     -10.95354455       0.00020366      -0.00023717       0.00021798
S        9.33498573       9.01370794     -14.98046590      -0.00025799      -0.00033514       0.00008426
O       10.38696874       9.88674909     -15.42697850       0.00033808       0.00019205      -0.00000101
O        8.01116575       9.06245622     -15.54046838      -0.00012267      -0.00003779      -0.00004368
O        9.92265821       7.54479027     -15.02043752       0.00019193       0.00016767      -0.00014074
O        9.11394778       9.22475960     -13.39249056      -0.00009403       0.00009653       0.00013258
H        9.30019189       6.88955045     -14.61835787      -0.00015573      -0.00005832       0.00005039
H        9.95047341       9.03266094     -12.93418403       0.00008716      -0.00002538      -0.00009578
