14
Properties=species:S:1:pos:R:3:forces:R:3 -2771.26404=T energy=-38102.86317502058 free_energy=-38102.86317502058 pbc="F F F"
S       -0.72435287      -5.03453682      -8.33785663      -0.00008756       0.00025172       0.00003392
O       -1.06448028      -5.05849373      -9.74435769       0.00013033      -0.00007761       0.00028872
O       -0.37939170      -3.79462419      -7.69940523      -0.00005949      -0.00024188      -0.00020218
O       -1.94552857      -5.74102963      -7.60916399       0.00014506       0.00009581       0.00035958
O        0.39370364      -6.12405641      -8.05883233      -0.00028783      -0.00009426       0.00001740
H       -1.77707806      -5.76480855      -6.65111322       0.00000595      -0.00008031      -0.00047006
H        1.20569436      -5.83998225      -8.53147259       0.00025427       0.00017970      -0.00013484
S        2.16507465      -5.09576779     -11.47606173       0.00005383       0.00009183       0.00012401
O        2.48516319      -3.76847518     -11.02684538      -0.00007507      -0.00010753      -0.00006306
O        2.84744808      -5.71930625     -12.57738147      -0.00002041      -0.00011706       0.00012642
O        2.35269364      -6.02903370     -10.15369026      -0.00010395      -0.00022356      -0.00003403
O        0.61760251      -5.26143806     -11.72754135      -0.00004678       0.00016467       0.00015379
H        2.10164729      -6.94198739     -10.38505845       0.00007200       0.00024992      -0.00007887
H        0.09992768      -5.03473826     -10.91111967       0.00001964      -0.00009092      -0.00012076
