14
Properties=species:S:1:pos:R:3:forces:R:3 -2771.18781=T energy=-38102.89287267003 free_energy=-38102.89287267003 pbc="F F F"
S      -12.83712990      -2.06217752     -12.29026709       0.00017502      -0.00016517      -0.00047806
O      -11.73932630      -2.95897570     -12.54236344      -0.00008297       0.00015414       0.00022660
O      -13.71446731      -1.64170093     -13.34867279      -0.00008047       0.00012612      -0.00000077
O      -13.69283829      -2.75237194     -11.12421266      -0.00000839      -0.00012660       0.00023931
O      -12.31680200      -0.73364005     -11.59973114       0.00010514      -0.00001627       0.00015547
H      -14.16352342      -2.08109504     -10.57721636      -0.00002950       0.00006338       0.00000574
H      -11.89142093      -0.92176077     -10.72283637      -0.00010997      -0.00000817      -0.00013553
S      -12.68292265      -1.61439044      -8.30809194      -0.00007153      -0.00000810      -0.00004068
O      -11.65074714      -0.84401940      -8.97958995       0.00014985       0.00001305       0.00001663
O      -14.05514669      -1.44303115      -8.71165746      -0.00002575      -0.00005054       0.00003310
O      -12.27788933      -3.15248899      -8.38196969       0.00003460       0.00007105       0.00011061
O      -12.59498090      -1.40013235      -6.73723943       0.00026300      -0.00003263       0.00018546
H      -12.42554760      -3.43068470      -9.30978654      -0.00001632      -0.00011183      -0.00017750
H      -11.70821340      -1.65573690      -6.42690900      -0.00030254       0.00009144      -0.00014028
