14
Properties=species:S:1:pos:R:3:forces:R:3 -2771.24083=T energy=-38102.875742151635 free_energy=-38102.875742151635 pbc="F F F"
S       10.88974674       6.56139780     -15.11452178      -0.00001426      -0.00044257      -0.00002740
O       10.67775433       5.46566287     -16.02190672       0.00020319       0.00020552       0.00051486
O       10.53836408       7.91185071     -15.45887910      -0.00008848       0.00001645       0.00012267
O       10.10204500       6.13795331     -13.76399698      -0.00033703       0.00001132       0.00007573
O       12.38515450       6.59084070     -14.59827822       0.00000241       0.00007440       0.00041872
H       10.42492746       6.66884616     -13.01083083      -0.00020469       0.00000553       0.00003500
H       12.59875627       5.76924695     -14.09226705      -0.00002884      -0.00000234       0.00013151
S       12.27905887       4.36488336     -11.64829252       0.00017855       0.00034540      -0.00058408
O       12.82735735       3.53327071     -10.61868634      -0.00000021      -0.00044787       0.00033700
O       13.09386200       4.87399585     -12.72866205       0.00021082      -0.00037682       0.00005114
O       11.01323113       3.62093116     -12.24866051      -0.00026637      -0.00002058      -0.00006886
O       11.60738428       5.67058800     -10.98740903       0.00024588       0.00023791      -0.00083429
H       10.57239023       4.22388547     -12.88489069       0.00024766      -0.00002427      -0.00027536
H       11.36779203       5.45568402     -10.07055222      -0.00014854       0.00041802       0.00010332
