14
Properties=species:S:1:pos:R:3:forces:R:3 -2771.13962=T energy=-38102.88326945486 free_energy=-38102.88326945486 pbc="F F F"
S       -4.24302918      -7.97430152     -15.82532615       0.00009504       0.00017258       0.00024592
O       -4.54260215      -7.81459219     -17.24111080      -0.00005704       0.00053656       0.00010073
O       -4.14641613      -6.82542242     -14.98021973       0.00015232      -0.00043339       0.00017142
O       -5.25154046      -9.05611225     -15.23564645      -0.00021128       0.00035989      -0.00003169
O       -2.90455431      -8.81961617     -15.67802601      -0.00024793      -0.00011028      -0.00038558
H       -6.16675287      -8.71813325     -15.34061905       0.00043693      -0.00039592      -0.00030062
H       -3.03554747      -9.69522188     -16.08149763      -0.00029133      -0.00006570       0.00026834
S       -8.20233049      -7.80853718     -17.57686033       0.00001065      -0.00012336      -0.00001266
O       -8.24508891      -9.23229552     -17.77346974       0.00016375       0.00008416       0.00028390
O       -9.30227987      -6.95422922     -17.93287529       0.00003910      -0.00027227       0.00007545
O       -7.89401765      -7.62308719     -15.99159896       0.00011837       0.00035658      -0.00003096
O       -6.90032161      -7.17712432     -18.20552080      -0.00008786      -0.00005478      -0.00024350
H       -7.75374926      -6.67624100     -15.81229332      -0.00009664      -0.00000669      -0.00011722
H       -6.08144899      -7.58925298     -17.82551480      -0.00002395      -0.00004737      -0.00002339
