14
Properties=species:S:1:pos:R:3:forces:R:3 -2771.10703=T energy=-38102.69549253277 free_energy=-38102.69549253277 pbc="F F F"
S      -13.76779304       5.34943902      -1.37264593      -0.00049034       0.00012869      -0.00064877
O      -13.25488128       4.06767965      -0.97782665       0.00009710      -0.00046706       0.00011313
O      -13.23590474       6.03599457      -2.52759837       0.00015732       0.00009882      -0.00005293
O      -15.34887754       5.16627485      -1.56435980      -0.00011450       0.00068529      -0.00014091
O      -13.81203031       6.34514044      -0.14489343      -0.00008602       0.00035684       0.00047615
H      -15.71389262       5.99195896      -1.92970755       0.00048674      -0.00076693       0.00031821
H      -12.89908977       6.64110602       0.09143675       0.00002505       0.00001441      -0.00002784
S      -10.66693384       8.32769064       0.93126019      -0.00047020      -0.00035176       0.00033068
O       -9.54409736       8.35703634       0.04411064      -0.00006020      -0.00006697      -0.00008780
O      -11.57065592       7.20226193       1.02202316       0.00041455      -0.00000024       0.00005576
O      -10.11200849       8.65384685       2.39679317      -0.00045331       0.00000894       0.00021005
O      -11.61298496       9.59593757       0.66082189       0.00014891       0.00033677      -0.00012930
H      -10.86274964       8.72541222       3.01126698       0.00040919      -0.00009204      -0.00042056
H      -11.07483079      10.30947438       0.27912965      -0.00006457       0.00011550       0.00000411
