14
Properties=species:S:1:pos:R:3:forces:R:3 -2771.46739=T energy=-38103.05419936598 free_energy=-38103.05419936598 pbc="F F F"
S       14.75178795       0.03411175     -18.25369030       0.00002518       0.00005257       0.00004581
O       15.48941917      -0.14192400     -19.48990456      -0.00013024      -0.00001943      -0.00002921
O       14.13839249       1.29064721     -17.93905983       0.00011361       0.00011241       0.00007200
O       13.64449706      -1.12825161     -18.30770769      -0.00011143       0.00017017       0.00005352
O       15.63172973      -0.39886765     -17.02352893       0.00003377      -0.00008837      -0.00009921
H       13.20367724      -1.17114843     -17.44356078       0.00028861      -0.00009456       0.00016521
H       16.14867658      -1.22563971     -17.22084796       0.00009018      -0.00004871      -0.00022662
S       18.05499634      -2.47139798     -18.62041603      -0.00036327      -0.00008711      -0.00003872
O       17.25534715      -2.43017409     -17.41046019      -0.00015056      -0.00017151      -0.00026131
O       19.23348110      -1.65334534     -18.72072526      -0.00009739       0.00017858       0.00010300
O       18.41665178      -4.00903782     -18.80420698      -0.00016588      -0.00000417      -0.00011056
O       17.12145286      -2.27113700     -19.87073818      -0.00000709       0.00011954      -0.00018470
H       18.96257376      -4.11410753     -19.60251306       0.00062806      -0.00012425       0.00047285
H       16.66454656      -1.39472978     -19.80181893      -0.00015325       0.00000483       0.00003812
