14
Properties=species:S:1:pos:R:3:forces:R:3 -2771.25512=T energy=-38102.863165694514 free_energy=-38102.863165694514 pbc="F F F"
S      -14.85786212       0.31704204     -12.39624072      -0.00013727       0.00008944       0.00000345
O      -15.08290649      -0.60868824     -11.30680287       0.00014806      -0.00011140      -0.00044239
O      -14.12779404      -0.10189210     -13.56047321      -0.00026250       0.00053167      -0.00040865
O      -16.30119290       0.85621890     -12.78017315      -0.00016004       0.00012921       0.00062552
O      -14.24037841       1.65730064     -11.81526208       0.00037289      -0.00014870       0.00040361
H      -16.22053646       1.50056837     -13.50479772      -0.00041805      -0.00044262      -0.00064542
H      -13.34992657       1.44225103     -11.46271834       0.00008030      -0.00018289       0.00004351
S      -11.97509520      -0.52511845      -9.36750340      -0.00031845       0.00011121       0.00017924
O      -11.49075844      -0.49177572      -8.01413438      -0.00009865       0.00005996       0.00059652
O      -11.22366065      -1.12242791     -10.43731976       0.00028887      -0.00046676      -0.00018752
O      -13.45243039      -1.07384324      -9.32457092      -0.00010681       0.00022480      -0.00004742
O      -12.24070430       1.00460048      -9.86168673       0.00021511       0.00021112       0.00011664
H      -13.90926808      -0.92934255     -10.19425159       0.00020628      -0.00001997      -0.00004214
H      -12.79269889       1.45081303      -9.19368778       0.00019017       0.00001494      -0.00019469
