14
Properties=species:S:1:pos:R:3:forces:R:3 -2771.43509=T energy=-38103.30362852095 free_energy=-38103.30362852095 pbc="F F F"
S       12.25028741       4.41722606     -16.94675603      -0.00024018       0.00043385      -0.00016148
O       10.88031803       4.94788794     -17.06813986       0.00050396      -0.00042170       0.00010149
O       13.16695562       5.19768139     -16.15487187       0.00005311      -0.00031257      -0.00000556
O       12.02782561       2.96912319     -16.39429748       0.00013093       0.00029435      -0.00015879
O       12.80942798       4.15299307     -18.37087625      -0.00022268       0.00026369       0.00034094
H       12.87293904       2.49129081     -16.29565073       0.00009657      -0.00003865      -0.00005150
H       12.89713238       5.01931206     -18.86556694       0.00014815      -0.00022014       0.00012331
S       12.09968459       7.64396050     -18.66859617       0.00007134       0.00064462      -0.00018133
O       12.72834416       6.59992023     -19.48642986      -0.00020993      -0.00046802      -0.00001764
O       11.89465422       8.93664122     -19.25087190       0.00002706      -0.00001645       0.00004720
O       10.77057959       7.10096101     -18.10015324       0.00001514       0.00008810      -0.00033909
O       13.01729058       7.84638958     -17.38412073      -0.00000373      -0.00017562       0.00029387
H       10.87719718       6.10907557     -17.63753886      -0.00021615       0.00013808       0.00010367
H       13.16389106       6.97555511     -16.94198984      -0.00015340      -0.00020986      -0.00009523
