14
Properties=species:S:1:pos:R:3:forces:R:3 -2771.45275=T energy=-38103.022965043965 free_energy=-38103.022965043965 pbc="F F F"
S       11.57119476       6.61592437     -14.77266685       0.00012323      -0.00046017      -0.00031730
O       11.23034579       5.71350532     -15.86925920       0.00000805      -0.00000501      -0.00002277
O       10.95553039       7.90840796     -14.73009517      -0.00038695       0.00056779      -0.00007743
O       11.27671569       5.81618942     -13.41155763       0.00021712      -0.00010639       0.00028691
O       13.11953528       6.76018510     -14.64912799       0.00048797      -0.00011857       0.00004315
H       10.31715770       5.67491418     -13.33808269      -0.00041444      -0.00005717       0.00010262
H       13.58257862       5.88850391     -14.75574826       0.00004644       0.00003751      -0.00001213
S       14.02918302       3.44597387     -15.88890625      -0.00009944       0.00055511       0.00048851
O       14.88728530       2.56112465     -16.61824103       0.00048661      -0.00030267      -0.00034940
O       14.57129193       4.62197027     -15.23075516      -0.00024055      -0.00015187      -0.00039113
O       12.83110352       3.85199277     -16.82398905       0.00001660       0.00015820       0.00008835
O       13.28675850       2.66645189     -14.69939062      -0.00032543      -0.00054201      -0.00000620
H       12.22038853       4.48591120     -16.36554158      -0.00006359       0.00007413      -0.00002369
H       12.72163751       1.97899760     -15.08624099       0.00014421       0.00035147       0.00019013
