14
Properties=species:S:1:pos:R:3:forces:R:3 -2771.44324=T energy=-38103.054202964624 free_energy=-38103.054202964624 pbc="F F F"
S       11.39513654       7.45972626     -16.10366448      -0.00001257      -0.00003839      -0.00017950
O       12.24714220       7.41490801     -17.27722828       0.00004685       0.00014922       0.00007999
O       10.73738138       6.26115294     -15.65759988       0.00001603      -0.00025535       0.00001967
O       12.32741144       8.05182152     -14.95948119       0.00030234       0.00005975      -0.00014918
O       10.37099714       8.64522676     -16.24665841      -0.00012195      -0.00003336       0.00003716
H       11.82141164       8.09960914     -14.12999932      -0.00025201       0.00008814       0.00027390
H        9.81723780       8.50431821     -17.05606366       0.00004514      -0.00011271       0.00006948
S        9.96170519       8.39876600     -19.89613075      -0.00019354       0.00009549       0.00023397
O        9.32195550       8.05895740     -21.13280819      -0.00000083       0.00011048       0.00012231
O        9.18613862       8.56928418     -18.68255704       0.00007646       0.00017434      -0.00022483
O       11.13434940       7.37721816     -19.65868211       0.00009215      -0.00009236      -0.00011715
O       10.74680983       9.79272461     -20.03965186      -0.00028181      -0.00006104       0.00028026
H       11.56057909       7.51480193     -18.77032679      -0.00006767       0.00005260       0.00005538
H       11.40443847       9.70182463     -20.74827787       0.00035125      -0.00013680      -0.00050152
