14
Properties=species:S:1:pos:R:3:forces:R:3 -2771.19831=T energy=-38103.05860162522 free_energy=-38103.05860162522 pbc="F F F"
S       -4.77642036      -4.38491185      -3.25697931      -0.00033086      -0.00018202      -0.00014586
O       -3.93035444      -5.35821683      -3.88157328       0.00031853      -0.00023603      -0.00011200
O       -5.85531857      -3.75774457      -3.99754274      -0.00011277       0.00010216       0.00015752
O       -5.31997168      -4.99828180      -1.91453860      -0.00017443       0.00012921       0.00006661
O       -3.91158939      -3.13740640      -2.73668484       0.00054017       0.00000650       0.00038847
H       -5.92556640      -4.36090786      -1.44645853       0.00009723      -0.00005572      -0.00005436
H       -3.26268956      -3.46110711      -2.09132254      -0.00032353       0.00022876      -0.00024248
S       -7.79942988      -2.46929178      -1.24417955       0.00023703      -0.00000305      -0.00019452
O       -7.11465982      -3.59403530      -0.61225054       0.00018322      -0.00007832       0.00003964
O       -7.26674921      -1.15085629      -1.08908277      -0.00017281      -0.00018704      -0.00005148
O       -8.06335772      -2.83988690      -2.75385692      -0.00012316       0.00015217       0.00019675
O       -9.30632411      -2.45789685      -0.73005568       0.00016469       0.00072181       0.00016016
H       -7.20377058      -3.00672377      -3.21455219       0.00000867       0.00001986      -0.00001998
H       -9.73550741      -3.29049610      -0.99296146      -0.00031187      -0.00061809      -0.00018859
