14
Properties=species:S:1:pos:R:3:forces:R:3 -2771.45375=T energy=-38103.05419936598 free_energy=-38103.05419936598 pbc="F F F"
S      -13.14686042       5.39255522      -6.56158540       0.00017020      -0.00005034       0.00027510
O      -14.02005634       4.88527472      -7.60250852       0.00002432       0.00012255       0.00016654
O      -12.86450390       6.79405191      -6.46068270       0.00011086      -0.00025117      -0.00020182
O      -13.82874384       4.86263842      -5.20719352      -0.00005670      -0.00006789      -0.00037891
O      -11.77642139       4.61992025      -6.57051071      -0.00014509      -0.00035416      -0.00024694
H      -13.21850307       5.03180686      -4.47106256      -0.00018215       0.00056787       0.00022777
H      -11.91052908       3.64607427      -6.72353017       0.00017916       0.00019013       0.00009059
S      -12.68307824       1.65134599      -8.32564528      -0.00015590      -0.00052622       0.00001894
O      -12.17400314       1.83917147      -9.65743390      -0.00003862       0.00030949      -0.00047946
O      -11.88389853       2.06680512      -7.18816981       0.00036207       0.00028513       0.00062311
O      -14.13455790       2.24222422      -8.18813708      -0.00025859      -0.00017263       0.00020540
O      -12.99526268       0.11643178      -8.05094838      -0.00013487      -0.00020057      -0.00001011
H      -14.08457193       3.23123926      -8.15742325      -0.00012272       0.00023135       0.00020665
H      -13.52783397      -0.23610534      -8.78473060       0.00024811      -0.00008357      -0.00049744
