14
Properties=species:S:1:pos:R:3:forces:R:3 -2771.09370=T energy=-38102.68701802534 free_energy=-38102.68701802534 pbc="F F F"
S        4.14270743       3.22710304       1.51742118       0.00020487      -0.00029489      -0.00003455
O        4.40296917       2.43306961       0.33688078      -0.00029573      -0.00022244       0.00028491
O        3.66842602       4.57557251       1.45012263       0.00031641       0.00013965      -0.00007752
O        3.15081872       2.32439825       2.39403106      -0.00023060       0.00059873      -0.00013027
O        5.45359502       3.24108237       2.43571487      -0.00018048      -0.00017652      -0.00001105
H        2.78085897       2.87133664       3.10656876      -0.00021748       0.00066153       0.00036936
H        5.80989012       2.33723125       2.49963310      -0.00020320      -0.00046093       0.00008224
S        5.97916484      -0.95491583      -0.07031259      -0.00003325       0.00015506      -0.00052846
O        5.10088606      -1.50200827       0.93735310       0.00012398      -0.00034893       0.00009537
O        5.67001087      -1.07541929      -1.46706047       0.00036091      -0.00006673       0.00032878
O        6.32336374       0.54901201       0.29377606      -0.00009336      -0.00021207      -0.00008616
O        7.44249799      -1.57598813       0.13529159       0.00024226       0.00003344       0.00038916
H        5.51797689       1.10720172       0.16860984      -0.00014005      -0.00011704      -0.00000445
H        7.61109108      -1.66067041       1.09076064       0.00014577       0.00031129      -0.00067697
