14
Properties=species:S:1:pos:R:3:forces:R:3 -2771.10752=T energy=-38102.666614436945 free_energy=-38102.666614436945 pbc="F F F"
S       -6.53945760      -7.99512970     -14.69497982      -0.00040469       0.00031836       0.00014831
O       -5.74946061      -8.75813566     -15.61300100       0.00033760      -0.00023973      -0.00027645
O       -7.52148711      -7.02228160     -15.11896923      -0.00000644       0.00010675      -0.00002798
O       -7.24973385      -9.03907469     -13.71042344      -0.00007798      -0.00018373       0.00003356
O       -5.58526682      -7.19910714     -13.67852915       0.00029817      -0.00016567       0.00002569
H       -7.72804093      -8.54793158     -13.02023477      -0.00000846       0.00004723       0.00007083
H       -4.74741279      -7.68413079     -13.59425357      -0.00013708       0.00016062       0.00004580
S       -7.43966529      -3.81521429     -17.10202407      -0.00035662       0.00050568       0.00052637
O       -6.10373836      -4.09804366     -17.55355064       0.00072551      -0.00027072      -0.00054371
O       -7.96042257      -2.47596651     -17.03667193      -0.00011253      -0.00012934       0.00006825
O       -8.39142611      -4.70010796     -18.06490668      -0.00026657      -0.00008655      -0.00020902
O       -7.72148932      -4.47844268     -15.69392017      -0.00014945       0.00071833       0.00051069
H       -9.30255740      -4.64345312     -17.72904845       0.00004647      -0.00013141      -0.00025864
H       -7.42854691      -5.42164044     -15.67293514       0.00011202      -0.00064978      -0.00011367
