14
Properties=species:S:1:pos:R:3:forces:R:3 -2771.44114=T energy=-38103.054202102976 free_energy=-38103.054202102976 pbc="F F F"
S       -8.34347470       4.25522484       0.76749815      -0.00033234       0.00000079       0.00003455
O       -7.30029921       4.65850307      -0.12874226       0.00032938       0.00026560      -0.00028205
O       -8.88557773       5.18439101       1.74015463      -0.00001663       0.00002314      -0.00054502
O       -9.50059922       3.61946922      -0.08802950      -0.00030746      -0.00007643      -0.00007829
O       -7.85905529       3.01310758       1.66332949       0.00018921      -0.00028823       0.00065688
H      -10.28899792       3.39755152       0.47674219      -0.00002779       0.00009082       0.00000156
H       -7.61990027       2.28275538       1.06976987      -0.00016573       0.00029249       0.00009438
S      -12.31049268       4.20691996       2.02597036       0.00053054      -0.00034076       0.00001841
O      -11.76571844       3.17067955       1.16886467       0.00001466       0.00025642       0.00006777
O      -12.98391351       5.33334595       1.43790125       0.00009608       0.00038695       0.00002737
O      -13.27474597       3.42970239       3.02348752      -0.00012408       0.00007623       0.00018078
O      -11.20639490       4.67774617       3.04286454       0.00057167      -0.00014842      -0.00026826
H      -13.68783811       4.06906924       3.62924007      -0.00030224      -0.00013424      -0.00013388
H      -10.42861841       5.03216857       2.54179812      -0.00045527      -0.00040449       0.00022572
