14
Properties=species:S:1:pos:R:3:forces:R:3 -2771.24050=T energy=-38102.87574585165 free_energy=-38102.87574585165 pbc="F F F"
S       10.97772009       6.27097742     -16.63695440       0.00012755       0.00003132       0.00002994
O       11.49413313       5.94807658     -17.93880292       0.00002086      -0.00007391      -0.00011325
O       10.72953096       7.62890011     -16.23277890      -0.00002968      -0.00001037       0.00007498
O        9.69839784       5.36774743     -16.41083316      -0.00000322      -0.00001931       0.00001857
O       11.97949422       5.68061719     -15.50931879       0.00002518       0.00020024       0.00010175
H        9.45851133       5.33127612     -15.45278620      -0.00007646      -0.00004000       0.00003482
H       11.96990656       4.70459003     -15.53470785      -0.00013490      -0.00012275      -0.00010605
S       10.09521908       4.24229561     -12.91282956      -0.00005518      -0.00014471       0.00011525
O        9.15236682       4.56930824     -13.95900130       0.00006294       0.00007612       0.00000429
O        9.67014359       3.68842271     -11.66188522       0.00002758       0.00011608      -0.00011849
O       11.15692641       3.25179146     -13.60895018       0.00026262      -0.00037938       0.00023863
O       10.99545508       5.51031686     -12.60001602       0.00000577       0.00014266      -0.00017108
H       11.57047668       2.71474928     -12.91267502      -0.00018412       0.00024198      -0.00029719
H       11.37232530       5.83857217     -13.44435817      -0.00004886      -0.00001765       0.00018794
