14
Properties=species:S:1:pos:R:3:forces:R:3 -2771.23918=T energy=-38102.86317208084 free_energy=-38102.86317208084 pbc="F F F"
S      -11.11852018      -0.93164189      -7.25062028      -0.00002014       0.00007794       0.00003303
O      -11.93763345      -1.71484551      -8.13548482       0.00000870       0.00004733      -0.00006080
O      -10.46225798       0.27378948      -7.67747763       0.00008637       0.00005710       0.00008079
O      -11.94381887      -0.70077124      -5.92738473       0.00000152      -0.00003371       0.00006157
O       -9.91365743      -1.87363717      -6.68869864       0.00008616      -0.00003301      -0.00000204
H      -11.36258631      -0.34549056      -5.20499180      -0.00000078      -0.00000410       0.00002658
H      -10.30498979      -2.69423895      -6.33725259      -0.00001910      -0.00012559      -0.00010433
S       -9.29536814      -0.12200847      -3.47903573       0.00007922       0.00003827       0.00008583
O       -8.46274155       0.99408347      -3.83264310      -0.00013244      -0.00016057      -0.00007901
O      -10.72276533      -0.06702581      -3.71139571       0.00000334      -0.00002319       0.00002338
O       -8.72044139      -1.45702436      -4.11326064      -0.00008404      -0.00001365      -0.00002855
O       -9.14464483      -0.49331189      -1.94253466       0.00026730       0.00003812       0.00001615
H       -8.82678643      -1.38979440      -5.08669965      -0.00006655      -0.00002916       0.00004242
H       -8.19972826      -0.55576873      -1.71888259      -0.00020954       0.00016414      -0.00009508
