14
Properties=species:S:1:pos:R:3:forces:R:3 -2771.44048=T energy=-38103.058601675904 free_energy=-38103.058601675904 pbc="F F F"
S      -11.53989850       3.00448418      -7.05128871      -0.00010004      -0.00027186       0.00045285
O      -12.07992881       1.71930292      -6.71968583       0.00014937      -0.00007510      -0.00002420
O      -12.10854976       3.79027790      -8.13060825      -0.00007584       0.00042534      -0.00048608
O      -11.46667672       3.85953764      -5.73320529       0.00013594       0.00006490      -0.00010264
O       -9.99387709       2.87721863      -7.46187200      -0.00030042       0.00007259      -0.00010080
H      -11.10672662       4.77044235      -5.91426363      -0.00004706      -0.00008945       0.00007873
H       -9.50532836       2.50773289      -6.70880051       0.00025538      -0.00010989       0.00019927
S      -10.74262723       7.02483119      -7.29828845       0.00004858      -0.00020362       0.00005572
O      -10.76066899       6.37423950      -5.99073065       0.00006178       0.00009972      -0.00000334
O       -9.52747922       7.04288663      -8.05271535      -0.00013936       0.00004172       0.00003231
O      -11.96413779       6.48175329      -8.13440484      -0.00005096       0.00022819      -0.00009140
O      -11.22888174       8.52890006      -7.10713897       0.00060204      -0.00014073      -0.00033063
H      -11.88410632       5.50232433      -8.24962110       0.00005710      -0.00001922       0.00008517
H      -12.13671584       8.52476559      -6.75733614      -0.00059654      -0.00002244       0.00023504
