14
Properties=species:S:1:pos:R:3:forces:R:3 -2771.48749=T energy=-38103.2891311471 free_energy=-38103.2891311471 pbc="F F F"
S       -3.33282656      -1.48892245      -5.71778976       0.00009794      -0.00010925      -0.00016989
O       -3.43737848      -2.92898395      -5.95247852       0.00016575       0.00032353       0.00037563
O       -3.58600124      -0.58253954      -6.79357952       0.00017905       0.00003171       0.00040305
O       -4.28992006      -1.11654270      -4.51873672      -0.00018393      -0.00015020      -0.00028694
O       -1.88859920      -1.18937538      -5.14994723       0.00005682      -0.00015109       0.00007403
H       -4.15988178      -1.74430595      -3.76112013      -0.00011394       0.00015928      -0.00052425
H       -1.66953003      -1.81334986      -4.41016456      -0.00035785      -0.00015288      -0.00002092
S       -2.62672916      -3.61450505      -2.74254688       0.00003592       0.00009835       0.00007974
O       -1.38789222      -2.90986541      -3.03101208       0.00001788      -0.00006419       0.00002623
O       -3.79672980      -2.82268886      -2.43350736      -0.00003183      -0.00001740       0.00018460
O       -2.93399445      -4.62462382      -3.89992541      -0.00032462      -0.00002527      -0.00017402
O       -2.42574580      -4.60956730      -1.52688539       0.00080259      -0.00020084       0.00018972
H       -3.10806662      -4.10004890      -4.72672860      -0.00008805       0.00001817      -0.00007010
H       -1.69608635      -5.22275920      -1.72370794      -0.00025553       0.00024022      -0.00008688
