14
Properties=species:S:1:pos:R:3:forces:R:3 -2771.09715=T energy=-38102.68579159661 free_energy=-38102.68579159661 pbc="F F F"
S       -8.84399851       0.75299477      -6.20824904       0.00032704       0.00074882      -0.00017706
O       -7.65354685       1.31216761      -6.78561035      -0.00001526      -0.00048715       0.00014782
O       -9.95896882       1.59915758      -5.84845958      -0.00033331      -0.00033271       0.00008649
O       -9.36293875      -0.36890917      -7.22964889       0.00040284       0.00018358       0.00004995
O       -8.49061966      -0.20013108      -4.99812172      -0.00034053      -0.00065882      -0.00060767
H      -10.23685808      -0.67751727      -6.93069346      -0.00038384      -0.00000885       0.00007866
H       -8.12939843       0.32089110      -4.23836625       0.00032824       0.00053778       0.00034124
S       -6.40779382       0.70081884      -1.97181566       0.00003067       0.00000653       0.00017717
O       -5.15369773       1.10035392      -2.53355714       0.00013685       0.00011048      -0.00001872
O       -7.65955641       0.81618143      -2.68717238      -0.00028896       0.00004937      -0.00009304
O       -6.23408246      -0.80774767      -1.46664677      -0.00011729      -0.00028652       0.00024246
O       -6.67446132       1.47030154      -0.59094539       0.00031260       0.00013086       0.00007594
H       -7.02128868      -1.06195371      -0.95456671       0.00022464       0.00011960      -0.00013896
H       -5.82017316       1.67783605      -0.17682163      -0.00028387      -0.00011298      -0.00016423
