14
Properties=species:S:1:pos:R:3:forces:R:3 -2771.42650=T energy=-38103.087840928805 free_energy=-38103.087840928805 pbc="F F F"
S        4.39052432      -0.27737992      -5.23024952       0.00012619       0.00030571      -0.00001995
O        5.58641024      -0.55694654      -6.00006289       0.00019383       0.00012675       0.00036657
O        3.09704550      -0.53231403      -5.80544888      -0.00034058      -0.00048067      -0.00013211
O        4.57352018      -1.10076074      -3.87958795      -0.00009871      -0.00043175      -0.00064707
O        4.46626142       1.18315115      -4.64763434       0.00056654       0.00045818      -0.00033532
H        3.80235464      -0.94294601      -3.30834589      -0.00030873      -0.00030044       0.00023368
H        4.54485937       1.83292855      -5.39297928      -0.00047811       0.00045260      -0.00014511
S        5.96098901       2.62535387      -7.64472594       0.00006265       0.00022802       0.00013589
O        5.10427504       3.00116148      -6.53759147       0.00015318      -0.00021952       0.00032949
O        5.38167632       2.34733525      -8.93159781      -0.00038544      -0.00052261       0.00044310
O        7.02567799       3.80439456      -7.75434343       0.00024921       0.00020003       0.00049889
O        6.92032722       1.45953887      -7.19873420       0.00019014      -0.00002363      -0.00034226
H        7.64427223       3.60328564      -8.47738702      -0.00008332      -0.00044163      -0.00083979
H        6.38066747       0.67830152      -6.91167860       0.00015311       0.00064911       0.00045412
