14
Properties=species:S:1:pos:R:3:forces:R:3 -2771.42379=T energy=-38103.08784782198 free_energy=-38103.08784782198 pbc="F F F"
S      -12.14139198       1.65994525      -7.26935091       0.00007680      -0.00016627       0.00054634
O      -10.80109373       1.80730397      -6.73752578       0.00008893       0.00060797      -0.00014567
O      -12.36968328       1.82020954      -8.68042754      -0.00019610      -0.00033754      -0.00054538
O      -12.61485839       0.21816647      -6.78697877      -0.00060440      -0.00032917      -0.00009787
O      -13.14094258       2.54590918      -6.43615698      -0.00006066       0.00022265      -0.00009371
H      -13.52088338       0.06227482      -7.10443042       0.00074127       0.00011063      -0.00001745
H      -12.86301425       3.49666093      -6.48886425       0.00011142       0.00041127       0.00001951
S      -10.83612747       5.35071225      -6.09342276      -0.00019149      -0.00034020       0.00052322
O      -10.15904080       5.85522887      -7.25789305       0.00003982       0.00029647      -0.00057340
O      -12.25903512       5.08052051      -6.15081700       0.00005817       0.00007823       0.00033265
O      -10.08369187       4.09871595      -5.50650640      -0.00016508      -0.00019202       0.00051394
O      -10.66060950       6.35216562      -4.86785994       0.00074328       0.00009057      -0.00033171
H      -10.25287158       3.31008144      -6.08396076       0.00006507      -0.00009144       0.00000283
H       -9.71712276       6.56736114      -4.77041435      -0.00070724      -0.00036115      -0.00013307
