14
Properties=species:S:1:pos:R:3:forces:R:3 -2771.42698=T energy=-38103.05860192933 free_energy=-38103.05860192933 pbc="F F F"
S        2.65681060      -2.23258340      -2.66524983      -0.00013122      -0.00018824      -0.00032265
O        2.69900301      -2.45699648      -4.09830966       0.00001368      -0.00003326       0.00015712
O        3.23587799      -1.05357461      -2.09263523       0.00017020       0.00030249       0.00009143
O        1.09081293      -2.31371989      -2.32464095       0.00000164      -0.00005239      -0.00003139
O        3.23074602      -3.48105009      -1.89991044      -0.00006153      -0.00018339      -0.00007338
H        0.98713773      -2.34054328      -1.35983128      -0.00003805      -0.00002336       0.00008214
H        2.86530575      -4.33019087      -2.27072519       0.00002116       0.00008969       0.00006226
S        1.99952023      -5.99625011      -4.16946295      -0.00016609       0.00016098       0.00020999
O        0.57561407      -6.02014492      -4.30359740       0.00013113      -0.00000964       0.00000694
O        2.58830891      -5.84529050      -2.84136410      -0.00005221       0.00002719      -0.00016397
O        2.58008444      -7.32984947      -4.81725881      -0.00006776      -0.00014362      -0.00003889
O        2.67873754      -4.94682952      -5.13044673       0.00000955       0.00012273       0.00008665
H        3.54628592      -7.24740673      -4.89612811       0.00012893       0.00000694      -0.00003263
H        2.51498587      -4.02985682      -4.79680762       0.00004076      -0.00007631      -0.00003339
