14
Properties=species:S:1:pos:R:3:forces:R:3 -2771.46014=T energy=-38103.01998450336 free_energy=-38103.01998450336 pbc="F F F"
S      -12.69749860       3.35592773      -8.83866744      -0.00003616       0.00013837       0.00011335
O      -12.19949407       2.02979337      -8.52033085      -0.00027162      -0.00006986      -0.00000778
O      -12.41892970       4.46241726      -7.97319046       0.00016746       0.00006437       0.00020397
O      -12.11768730       3.62546653     -10.30994440      -0.00009125      -0.00075850       0.00001100
O      -14.25018756       3.30898028      -9.09050859       0.00012854       0.00006258       0.00016166
H      -12.57281289       4.39551080     -10.68635221      -0.00029691       0.00030425      -0.00021150
H      -14.49531464       2.54120257      -9.66655628      -0.00001496       0.00014067      -0.00016287
S      -14.33624215      -0.04085895     -10.56352386       0.00021772       0.00015983       0.00019046
O      -14.96437068      -1.31006421     -10.77689482       0.00031292       0.00029302      -0.00007653
O      -15.13796441       1.14377679     -10.31478437      -0.00018709       0.00007546      -0.00007814
O      -13.25356803      -0.21296694      -9.43448526       0.00017434      -0.00013730       0.00006479
O      -13.44737179       0.37385450     -11.83294542      -0.00005705       0.00025428       0.00036027
H      -12.80706230       0.64829665      -9.23389287      -0.00013902       0.00008668      -0.00010632
H      -12.73324435      -0.27500737     -11.93681014       0.00009315      -0.00061419      -0.00046249
