14
Properties=species:S:1:pos:R:3:forces:R:3 -2771.45810=T energy=-38103.01998592254 free_energy=-38103.01998592254 pbc="F F F"
S        1.75139344      -1.38736454      -4.92302625      -0.00008826      -0.00010725       0.00014921
O        1.77895742      -1.57184481      -6.36287831      -0.00005254       0.00002277      -0.00015450
O        2.23276446      -0.17197676      -4.33815540       0.00005254       0.00015503       0.00008929
O        0.20982411      -1.62630955      -4.54890553       0.00008217      -0.00002590       0.00010797
O        2.46419165      -2.59299107      -4.20548128      -0.00003320       0.00004335       0.00000739
H        0.13690856      -1.73190242      -3.58695575       0.00000681       0.00003798      -0.00016916
H        2.17990364      -3.45849187      -4.59468111       0.00002467      -0.00007695      -0.00002035
S        1.48485928      -5.15958338      -6.62498799      -0.00009277       0.00023447       0.00020864
O        2.10093086      -4.95704066      -5.32598462       0.00000691      -0.00006098      -0.00013149
O        1.74251566      -6.35421022      -7.37161437       0.00001684       0.00006926      -0.00000262
O       -0.08252794      -5.00795953      -6.31871003      -0.00013557      -0.00003585      -0.00052741
O        1.76740893      -3.92598304      -7.56033986      -0.00002310      -0.00002244       0.00005909
H       -0.55583959      -4.91787535      -7.16113924       0.00019242      -0.00000806       0.00045350
H        1.62559754      -3.07244488      -7.07788086       0.00004302      -0.00022542      -0.00006955
