14
Properties=species:S:1:pos:R:3:forces:R:3 -2771.45224=T energy=-38103.11555481193 free_energy=-38103.11555481193 pbc="F F F"
S       -1.64959297      -7.83530979     -12.60572802       0.00024492       0.00005476      -0.00010093
O       -1.12933197      -9.17695678     -12.70613182       0.00020146       0.00012708      -0.00000617
O       -1.44117338      -6.91362835     -13.71226725      -0.00009622       0.00010741       0.00025618
O       -3.12176922      -7.81540055     -12.17200265       0.00025314      -0.00004870       0.00005636
O       -0.94498053      -7.10856209     -11.36135540      -0.00015640      -0.00020425      -0.00001679
H       -3.86688356      -7.64237692     -12.98110587      -0.00017074      -0.00004240      -0.00009833
H       -0.91370514      -7.73859153     -10.62213422      -0.00016382      -0.00000134      -0.00004674
S       -4.69358588      -7.04454520     -15.09144619       0.00008464       0.00017188       0.00016345
O       -4.56278788      -8.05364010     -16.09510626      -0.00015212      -0.00052077      -0.00026810
O       -4.89661170      -7.46880112     -13.68995055       0.00001987       0.00007650       0.00033265
O       -3.53060718      -6.00910103     -15.11969215       0.00018780       0.00001533       0.00002896
O       -5.93575752      -6.11128659     -15.33464916      -0.00027871       0.00032932      -0.00030585
H       -2.68118010      -6.40456721     -14.77945179      -0.00004790      -0.00004628      -0.00012767
H       -5.90757910      -5.72011182     -16.22778242       0.00007408      -0.00001860       0.00013313
