14
Properties=species:S:1:pos:R:3:forces:R:3 -2771.44995=T energy=-38103.05419460157 free_energy=-38103.05419460157 pbc="F F F"
S      -12.18968795       3.15652764      -4.87918400       0.00018051       0.00030692      -0.00009696
O      -11.79924811       1.79057362      -5.10276828      -0.00037751      -0.00041962      -0.00018650
O      -11.32450022       4.03234050      -4.11130166       0.00021335      -0.00041485       0.00014102
O      -12.57839993       3.86068036      -6.23108730       0.00003587       0.00038959      -0.00016347
O      -13.59099543       3.22802178      -4.13077117       0.00037400       0.00027824       0.00026515
H      -11.75579683       4.05536159      -6.74784060      -0.00005733       0.00000474       0.00024298
H      -14.22458915       2.64701188      -4.58614254      -0.00036664       0.00011456      -0.00010625
S       -9.38100546       5.62426282      -6.70693141       0.00003957       0.00002461       0.00012170
O       -8.08491092       5.87529245      -7.26479770       0.00019670       0.00033987       0.00008345
O      -10.36712095       4.85411356      -7.44020665       0.00038421      -0.00032270       0.00002671
O       -9.18231053       5.02937425      -5.26412891       0.00003298       0.00001803      -0.00000897
O      -10.13516244       7.00974872      -6.40408822      -0.00037780      -0.00019237      -0.00005390
H      -10.05040009       4.75677442      -4.86167822       0.00021148      -0.00015633       0.00001305
H       -9.59267748       7.52407090      -5.78431323      -0.00048932       0.00002939      -0.00027813
