14
Properties=species:S:1:pos:R:3:forces:R:3 -2770.97059=T energy=-38103.065526079205 free_energy=-38103.065526079205 pbc="F F F"
S        6.95744681       3.86091606      -8.64883437      -0.00019722       0.00034888       0.00040082
O        6.01752289       2.96278037      -9.25259311      -0.00021732      -0.00031531      -0.00030851
O        6.46102129       4.91471078      -7.77119680       0.00004289      -0.00011170       0.00010741
O        8.04091333       3.02509170      -7.80470026       0.00032625       0.00010583      -0.00007529
O        7.89744257       4.45898601      -9.74003712       0.00021634       0.00008798      -0.00034106
H        7.56807932       2.50936009      -7.12896652      -0.00013725      -0.00007020       0.00014365
H        8.45134842       5.21187548      -9.39045745      -0.00001988      -0.00013033       0.00005635
S        8.73673603       7.64926509      -8.34414933       0.00038510       0.00050959      -0.00021237
O        9.34933149       6.56584903      -9.10947158       0.00012803      -0.00044787      -0.00010771
O        7.93143322       8.61633657      -9.02416348      -0.00010538       0.00004637       0.00026054
O        8.00147100       7.01477863      -7.10205489      -0.00028995      -0.00002223       0.00037926
O        9.89414579       8.42514820      -7.57318867      -0.00002125       0.00010550      -0.00021420
H        7.32911887       6.35391259      -7.40745151      -0.00007681      -0.00003537      -0.00013253
H       10.33435385       7.80944129      -6.96200722      -0.00003335      -0.00007133       0.00004360
