14
Properties=species:S:1:pos:R:3:forces:R:3 -2771.10242=T energy=-38102.66661428489 free_energy=-38102.66661428489 pbc="F F F"
S       11.21836076       9.17324576     -15.41275440       0.00020718      -0.00056101       0.00026640
O       11.90742298       7.94871624     -15.13927096      -0.00000989       0.00060773      -0.00026238
O       10.43475313       9.38705864     -16.60891532      -0.00032091      -0.00008678      -0.00018287
O       10.29904816       9.48599987     -14.13966056       0.00022622      -0.00024922       0.00003093
O       12.24777776      10.40444768     -15.37093078      -0.00037679      -0.00011337       0.00011128
H        9.88059757      10.35622619     -14.25773826      -0.00020239       0.00047702      -0.00004138
H       12.98617072      10.17248317     -14.78331367       0.00042699      -0.00008932       0.00014660
S       11.14347572       9.42178489     -20.31302944      -0.00001113      -0.00005985       0.00031621
O       12.43117188       8.81792240     -20.09905581       0.00018406      -0.00003910       0.00011081
O       10.85330749      10.21989147     -21.47400375      -0.00013626       0.00013465      -0.00031745
O       10.09943520       8.18795397     -20.25219545      -0.00004560      -0.00002861      -0.00013742
O       10.69257678      10.27112338     -19.05708921       0.00020444      -0.00027277       0.00024698
H        9.19700539       8.55051097     -20.27046603      -0.00007368      -0.00001491      -0.00000882
H       10.82096779       9.76935268     -18.21585897      -0.00007239       0.00029562      -0.00027887
