14
Properties=species:S:1:pos:R:3:forces:R:3 -2770.92956=T energy=-38102.875001590815 free_energy=-38102.875001590815 pbc="F F F"
S        2.55119229       1.37625835      -0.54011767       0.00008346       0.00004360      -0.00014515
O        3.96087531       1.60680286      -0.69629174      -0.00023246      -0.00006235       0.00006935
O        1.97245138       0.10067688      -0.90257545       0.00007463       0.00006419      -0.00006118
O        2.09665652       1.75063994       0.93684815      -0.00003584       0.00027798      -0.00003973
O        1.70114265       2.46027502      -1.33173486       0.00005129      -0.00017764       0.00007337
H        2.44478801       1.05791792       1.54173509       0.00008815      -0.00022312       0.00011742
H        2.04584125       3.34676932      -1.12753945      -0.00000499       0.00007624      -0.00002434
S        2.63457182      -2.27128535       1.83632476      -0.00009761      -0.00005674       0.00020930
O        2.03442888      -3.02616772       2.89896495      -0.00004685      -0.00003695       0.00002730
O        3.80666262      -2.76255511       1.14831790       0.00005269       0.00012887      -0.00010061
O        1.50686942      -1.85371337       0.83060211       0.00001806      -0.00004342       0.00003196
O        3.01784130      -0.78961303       2.38927072      -0.00000646       0.00002909      -0.00012472
H        1.85060402      -1.20217844       0.16618801       0.00004166       0.00003606      -0.00002443
H        3.94111091      -0.81161083       2.70089212       0.00001423      -0.00005558      -0.00000846
