14
Properties=species:S:1:pos:R:3:forces:R:3 -2771.19869=T energy=-38102.69506806992 free_energy=-38102.69506806992 pbc="F F F"
S       -9.57846001       8.82029614      -2.07135870       0.00009613       0.00027954       0.00022550
O       -9.16127784       8.29337108      -3.34243088       0.00010961      -0.00001073      -0.00029016
O       -9.92315413      10.20526665      -1.88755933       0.00020686      -0.00002360       0.00027221
O      -10.83508773       7.90260472      -1.63433384      -0.00012483       0.00042170      -0.00049255
O       -8.53189846       8.44130442      -0.94054438      -0.00035409      -0.00013353       0.00036629
H      -11.06673287       8.12525062      -0.71654273       0.00002988      -0.00028208      -0.00044464
H       -8.27048681       7.48762847      -1.01873229      -0.00038148      -0.00040177       0.00003638
S       -6.90053160       6.25358052       1.10517426      -0.00009268       0.00027608      -0.00001550
O       -6.91795594       5.25624034       2.13418614       0.00032333      -0.00010300       0.00045156
O       -7.64862440       6.11213303      -0.12576975      -0.00024855      -0.00025108       0.00031793
O       -7.28748454       7.65013817       1.78030813       0.00014730       0.00003737      -0.00000530
O       -5.39408410       6.52295496       0.62733582       0.00022581       0.00027964       0.00011209
H       -7.60005210       8.25699806       1.07368826       0.00006266       0.00001597       0.00005046
H       -4.80421932       6.44773795       1.39630478      -0.00000014      -0.00010443      -0.00058401
