14
Properties=species:S:1:pos:R:3:forces:R:3 -2771.38285=T energy=-38103.103493924216 free_energy=-38103.103493924216 pbc="F F F"
S       -6.92869104       0.78756985      -5.06436329       0.00020695       0.00007827      -0.00030937
O       -6.05551339      -0.20707513      -5.67891508       0.00008583      -0.00005841      -0.00024951
O       -8.10635125       0.35937894      -4.37337998       0.00027716       0.00010642       0.00014138
O       -6.03836118       1.75558832      -4.19175127       0.00016338       0.00009915       0.00004021
O       -7.37542705       1.82558375      -6.18857810      -0.00044405       0.00000010       0.00003117
H       -5.53891319       1.23661497      -3.51011830       0.00023030       0.00004091      -0.00015643
H       -6.58208984       2.26061926      -6.54565991      -0.00011456       0.00005699       0.00004863
S       -3.79909001      -0.81032897      -2.88948010      -0.00025617       0.00022731      -0.00012863
O       -4.34190593      -1.99170657      -2.29167789       0.00026453      -0.00052071       0.00051832
O       -4.34128998       0.49379972      -2.52250150       0.00009850      -0.00011635       0.00015742
O       -2.23048757      -0.79906624      -2.60615505      -0.00072074      -0.00028700       0.00010114
O       -3.75238076      -0.90095472      -4.46455477       0.00016914      -0.00003361      -0.00043032
H       -1.81889651      -0.10759661      -3.15259020       0.00001311       0.00047789      -0.00011632
H       -4.66006357      -0.76490742      -4.84003511       0.00002689      -0.00007106       0.00035217
