14
Properties=species:S:1:pos:R:3:forces:R:3 -2771.27243=T energy=-38102.87574585165 free_energy=-38102.87574585165 pbc="F F F"
S       10.37358559       1.31610304     -17.60381707      -0.00029583      -0.00007544       0.00025058
O       11.48278519       0.54887309     -18.12478101       0.00011814      -0.00011492       0.00002050
O        9.29527560       0.69476787     -16.89422691       0.00023389       0.00019247      -0.00005138
O       11.05163722       2.44402427     -16.67593412      -0.00003868      -0.00020543      -0.00025898
O        9.74609220       2.19184477     -18.76806875      -0.00002941       0.00004718      -0.00004184
H       10.39250815       2.73508530     -16.02397511      -0.00005322       0.00005309       0.00009090
H       10.46786172       2.69889738     -19.19775309       0.00000549       0.00006554      -0.00000533
S       13.58111474       2.79675394     -20.11037300       0.00014061       0.00010633      -0.00030716
O       13.01559523       2.52605546     -21.40491049       0.00005901       0.00003767       0.00011039
O       14.82895260       3.49326658     -19.95695647      -0.00018644      -0.00011259       0.00005782
O       12.42388673       3.60337974     -19.31425054      -0.00004995       0.00009228       0.00019920
O       13.68088432       1.47517794     -19.24602466       0.00014486      -0.00007810       0.00000115
H       12.59809697       3.57247714     -18.35400566      -0.00002722       0.00000873      -0.00012521
H       12.78401142       1.09404049     -19.08145635      -0.00002110      -0.00001700       0.00005931
