14
Properties=species:S:1:pos:R:3:forces:R:3 -2771.17951=T energy=-38102.69972930497 free_energy=-38102.69972930497 pbc="F F F"
S        4.21928230      -1.07040825      -3.43184966      -0.00004959      -0.00003267      -0.00008212
O        3.15244047      -1.80759246      -2.82213808       0.00013065      -0.00015640       0.00000370
O        4.68185152      -1.34092131      -4.77690396       0.00047165      -0.00000578      -0.00043827
O        3.85306499       0.48144696      -3.31658846      -0.00001174      -0.00026777      -0.00011775
O        5.54268551      -1.16506714      -2.53176895      -0.00039957       0.00041670       0.00028314
H        4.42908552       0.97945570      -3.93533521      -0.00029793       0.00025631      -0.00014645
H        5.28632491      -1.13742379      -1.59467544      -0.00012944      -0.00018314      -0.00008728
S        5.16725714       1.40136594      -7.40755338      -0.00015809      -0.00017966       0.00011325
O        5.73469414       0.46615131      -8.33990433      -0.00072783       0.00022888       0.00030112
O        5.43761585       2.81258384      -7.46648923       0.00027737      -0.00043976      -0.00028276
O        3.57330763       1.16525843      -7.49806195      -0.00015122       0.00002092       0.00071400
O        5.44771350       0.93833099      -5.91263657       0.00033004      -0.00012753      -0.00019192
H        3.14674050       1.69266874      -6.80148524       0.00029997       0.00014006      -0.00015573
H        5.28936603      -0.03594867      -5.82106974       0.00041588       0.00032976       0.00008707
