14
Properties=species:S:1:pos:R:3:forces:R:3 -2771.44258=T energy=-38103.019986480074 free_energy=-38103.019986480074 pbc="F F F"
S      -13.88349511       1.46824066     -11.23899776      -0.00001030      -0.00006410      -0.00007246
O      -13.57183037       0.79616028     -12.48765344       0.00000535      -0.00000489      -0.00009668
O      -13.71844879       2.88560322     -11.11731177       0.00000396       0.00008130       0.00002629
O      -15.40680935       1.04785029     -10.96282369       0.00008166      -0.00003549      -0.00020238
O      -13.12157889       0.78141150     -10.04558792       0.00002992      -0.00000010       0.00009161
H      -15.63055693       1.27698991     -10.04672932      -0.00008787       0.00003012       0.00024869
H      -13.18711605      -0.20550640     -10.10116773      -0.00000279      -0.00000904      -0.00001049
S      -13.22450025      -2.62337683     -11.38622910       0.00006223      -0.00000969       0.00012346
O      -12.64714708      -3.91828887     -11.58830487      -0.00002432       0.00004506       0.00000268
O      -12.88933368      -1.84461612     -10.20759825      -0.00000980      -0.00002265      -0.00001431
O      -12.98649609      -1.77161379     -12.68789508       0.00000053      -0.00002749      -0.00009376
O      -14.82470489      -2.71817131     -11.32422189      -0.00010085      -0.00006217      -0.00021403
H      -13.34893207      -0.85529296     -12.58598664      -0.00000762       0.00004317       0.00003580
H      -15.14988766      -3.03771442     -12.18093799       0.00005992       0.00003599       0.00017578
