14
Properties=species:S:1:pos:R:3:forces:R:3 -2771.10790=T energy=-38102.66661466503 free_energy=-38102.66661466503 pbc="F F F"
S       -1.01465565      -7.03255181      -0.63417227       0.00020601      -0.00014215       0.00044131
O       -1.09878507      -8.43078589      -0.30785456       0.00009935       0.00038338      -0.00004977
O       -1.53313553      -6.49910294      -1.86528785      -0.00010300       0.00019741      -0.00010645
O       -1.73254717      -6.28082108       0.60504130       0.00044212       0.00018178      -0.00032640
O        0.46919405      -6.50093533      -0.50124002      -0.00066749      -0.00023636      -0.00008503
H       -1.59995266      -5.32300829       0.49925648      -0.00000376      -0.00038332      -0.00004806
H        0.88317939      -6.79166773       0.34727793       0.00007529      -0.00009294       0.00009154
S        2.87017413      -7.50401229       2.32559780      -0.00023475      -0.00012633      -0.00025940
O        1.96136718      -6.60949532       1.64406645      -0.00001168      -0.00014234       0.00015831
O        2.44155224      -8.45358060       3.30726149      -0.00018640       0.00013191       0.00019598
O        3.66922052      -8.25112930       1.15057594       0.00020088      -0.00020102       0.00026196
O        4.03445203      -6.63278619       2.99573200       0.00029877       0.00013863      -0.00008656
H        4.06384679      -9.06297812       1.51048333      -0.00008681       0.00035998      -0.00034775
H        4.40657732      -6.03347047       2.32586954      -0.00002848      -0.00006844       0.00016045
