14
Properties=species:S:1:pos:R:3:forces:R:3 -2771.19013=T energy=-38103.09384752529 free_energy=-38103.09384752529 pbc="F F F"
S        2.30373692      -1.98815423      -3.18859374       0.00067731       0.00000675      -0.00045319
O        2.08391787      -1.56358664      -4.56798522      -0.00009303      -0.00002110       0.00011587
O        1.14661228      -2.12121920      -2.34520899      -0.00040036      -0.00006098       0.00021112
O        3.22294616      -3.24798389      -3.16424306       0.00008953       0.00020862       0.00010075
O        3.36654867      -1.00010502      -2.53387019      -0.00011918      -0.00014597      -0.00005755
H        2.80059936      -3.99906427      -3.65416960      -0.00018148      -0.00015849       0.00002129
H        2.95937351      -0.12333651      -2.41197199       0.00001452       0.00011242       0.00004079
S        1.57429236      -4.83107302      -6.04884248      -0.00004119      -0.00000408      -0.00034746
O        2.36679589      -5.16654094      -4.88051871       0.00032079      -0.00005683       0.00026178
O        1.61364451      -5.65419941      -7.22117413       0.00000662       0.00006941       0.00005341
O        0.07955512      -4.74633420      -5.47107272      -0.00017998       0.00010021      -0.00001836
O        1.84728808      -3.34480833      -6.48652925      -0.00004996      -0.00008953      -0.00001751
H       -0.49001097      -4.34929932      -6.14963412      -0.00001752      -0.00000627      -0.00000434
H        1.86228069      -2.73419480      -5.69871762      -0.00002608       0.00004590       0.00009352
