14
Properties=species:S:1:pos:R:3:forces:R:3 -2771.44236=T energy=-38103.058602943034 free_energy=-38103.058602943034 pbc="F F F"
S        0.95465803      -4.37697226       1.17726574       0.00001841      -0.00005061      -0.00006868
O        2.19527697      -4.70185742       0.49821367      -0.00009274       0.00003046       0.00006115
O        0.51845442      -3.01685389       1.29167572       0.00001818      -0.00014645      -0.00000784
O       -0.13629758      -5.25457671       0.39330586       0.00005478      -0.00004643       0.00017062
O        0.93298275      -5.02030302       2.61235626      -0.00016460       0.00029915      -0.00000925
H       -0.96949758      -5.22496478       0.89053331       0.00017505       0.00008460       0.00000289
H        1.24090255      -5.96720858       2.58736234       0.00008234      -0.00020044      -0.00008187
S        2.71816402      -8.03699683       1.77247263       0.00019583       0.00008848      -0.00005745
O        1.91591160      -7.44335389       2.83889169      -0.00030422       0.00018537       0.00033164
O        2.07533550      -8.84322906       0.78110430      -0.00016964      -0.00028950      -0.00033462
O        3.61268257      -6.90260530       1.14072578       0.00016490      -0.00002220      -0.00004540
O        3.86906885      -8.90616615       2.44711945       0.00015332       0.00002635       0.00005282
H        3.03745817      -6.19004204       0.76612116      -0.00008614       0.00004683       0.00001388
H        4.42780217      -8.32295412       2.98956755      -0.00004526      -0.00000557      -0.00002777
