14
Properties=species:S:1:pos:R:3:forces:R:3 -2771.01394=T energy=-38102.90521653297 free_energy=-38102.90521653297 pbc="F F F"
S      -12.49103638      -3.61470748     -14.88786325       0.00038603      -0.00046163      -0.00015905
O      -12.05976149      -4.47035689     -15.95923739       0.00008142      -0.00018954      -0.00010502
O      -13.50478955      -2.61172254     -15.07634317      -0.00065333       0.00049508      -0.00003791
O      -12.84033482      -4.55250066     -13.66275838      -0.00003767      -0.00031710      -0.00008267
O      -11.21247528      -2.80560545     -14.31059441       0.00006065       0.00043600       0.00007386
H      -12.89459227      -4.03283676     -12.82253290      -0.00007289       0.00025689       0.00020475
H      -10.59105909      -3.42661912     -13.88477174       0.00012226      -0.00014823       0.00012426
S      -11.42627667      -2.78178601     -10.76816158       0.00026395       0.00009394      -0.00021989
O      -11.26222249      -2.51643347      -9.37146875       0.00000578      -0.00005072       0.00031912
O      -12.51457241      -3.63159450     -11.22065028      -0.00026810      -0.00015390      -0.00007069
O      -11.45716298      -1.41493283     -11.55318803       0.00000742       0.00004965      -0.00026536
O      -10.06219400      -3.36882682     -11.39226412       0.00002119       0.00039458      -0.00014860
H      -11.50589001      -1.60509968     -12.51478256       0.00004119      -0.00002927       0.00016440
H       -9.83648947      -4.19908393     -10.93567101       0.00004195      -0.00037603       0.00020298
