14
Properties=species:S:1:pos:R:3:forces:R:3 -2771.22965=T energy=-38102.86315930819 free_energy=-38102.86315930819 pbc="F F F"
S      -13.74075507       1.30879163     -10.82765300      -0.00019482      -0.00021923       0.00002359
O      -14.61980228       0.54238316     -11.66859966      -0.00019085      -0.00048435       0.00012350
O      -13.25362755       2.60674455     -11.20709812      -0.00039494      -0.00001955      -0.00060987
O      -14.37219986       1.32986399      -9.38327247      -0.00010806      -0.00000924       0.00008464
O      -12.39430803       0.43409470     -10.55038511       0.00027718       0.00030057       0.00000654
H      -13.71868307       1.66688619      -8.71598967       0.00025962       0.00036795      -0.00003137
H      -12.66215388      -0.45049570     -10.24097372       0.00008679      -0.00005568       0.00021254
S      -11.43708041       1.92531536      -7.29249710      -0.00027784      -0.00017633      -0.00000977
O      -12.88277244       1.85985784      -7.30813606       0.00001872       0.00023139      -0.00010268
O      -10.76563997       3.14582683      -7.64402198       0.00067389       0.00030231       0.00048254
O      -11.02045758       1.43258821      -5.84166346      -0.00028630      -0.00022697      -0.00035879
O      -10.85689246       0.71703166      -8.13995900       0.00009356       0.00007977       0.00003946
H      -10.05067046       1.44856228      -5.76383693      -0.00002297      -0.00052468       0.00025728
H      -11.11805406       0.86146608      -9.07506510       0.00006609       0.00043412      -0.00011759
