14
Properties=species:S:1:pos:R:3:forces:R:3 -2771.10937=T energy=-38102.72633432359 free_energy=-38102.72633432359 pbc="F F F"
S      -10.11741194       1.21318187      -0.01883374       0.00001519      -0.00012087      -0.00012142
O      -10.06316380      -0.21691282       0.13420260       0.00007927       0.00001526       0.00000292
O       -9.71987499       1.87300005      -1.23287590       0.00005955      -0.00003624      -0.00000608
O      -11.56831594       1.67883899       0.42039582      -0.00011110      -0.00003243       0.00004232
O       -9.22047616       1.89944681       1.13752702       0.00008741       0.00002606      -0.00023858
H      -11.64350428       2.66853232       0.36605631      -0.00008379       0.00015933       0.00007739
H       -9.51980989       1.55602891       1.99658881      -0.00006892      -0.00004016       0.00027080
S      -13.92669881       4.02754477       1.20711369       0.00016809      -0.00034843       0.00006210
O      -12.53462683       4.09825810       0.78704494       0.00013542       0.00010344      -0.00019056
O      -14.45738166       5.00233088       2.11170586      -0.00031137       0.00033903       0.00030732
O      -14.82938064       3.94295474      -0.11703143      -0.00000049      -0.00025770      -0.00014129
O      -14.22393803       2.57257019       1.76405303       0.00034945      -0.00000885      -0.00022233
H      -14.81709785       4.80911829      -0.56181878       0.00003145       0.00011623       0.00007486
H      -13.58557108       1.94426095       1.35790062      -0.00035006       0.00008531       0.00008250
