14
Properties=species:S:1:pos:R:3:forces:R:3 -2771.42615=T energy=-38103.05860198002 free_energy=-38103.05860198002 pbc="F F F"
S       10.43361693       6.83176099     -13.64842010       0.00006150      -0.00060184      -0.00025441
O       10.18670717       5.40604640     -13.53807187       0.00019878       0.00039518       0.00001165
O        9.39264875       7.72375004     -14.06558648       0.00001144       0.00005007       0.00039503
O       10.96398720       7.22891635     -12.18693492      -0.00028944      -0.00042494      -0.00031045
O       11.69659899       7.09929218     -14.54682169      -0.00020821      -0.00017326       0.00013101
H       11.31107830       8.13480023     -12.22163363       0.00039285       0.00061647      -0.00009232
H       12.44757302       6.49227651     -14.30259819      -0.00010175       0.00003372       0.00027064
S       13.59105181       4.20969668     -13.51944861      -0.00019080      -0.00017115       0.00010821
O       13.89069345       4.17061053     -12.12132615       0.00001097       0.00017595       0.00021374
O       13.73184757       5.47004368     -14.24400485      -0.00004604      -0.00041735      -0.00001407
O       14.49175280       3.11827568     -14.24933831       0.00005905       0.00001180      -0.00000697
O       12.17104273       3.60897901     -13.84939220      -0.00040326       0.00082323       0.00015695
H       14.17374203       3.00618046     -15.16195179       0.00013256       0.00014263      -0.00014639
H       11.46421358       4.23869824     -13.56157986       0.00037240      -0.00046057      -0.00046263
