14
Properties=species:S:1:pos:R:3:forces:R:3 -2771.45397=T energy=-38103.05420342079 free_energy=-38103.05420342079 pbc="F F F"
S       10.41907889       4.75894887     -14.42811584       0.00010525       0.00006358       0.00012048
O       11.10656718       3.65116916     -13.79145341       0.00019467       0.00000739      -0.00001842
O        9.04272166       4.61077558     -14.81784444      -0.00001681      -0.00014454       0.00019383
O       10.59114751       5.96930580     -13.41109895       0.00004882       0.00004271      -0.00008529
O       11.28909838       5.29583492     -15.62375385      -0.00015223      -0.00003065      -0.00010556
H       10.13966206       6.75275538     -13.76990745       0.00004109      -0.00003330      -0.00004332
H       11.42828044       4.56749373     -16.28085584      -0.00010523      -0.00002635      -0.00010075
S       12.69037011       2.03804104     -16.60936236       0.00006422      -0.00005229      -0.00015323
O       12.83876778       0.84783896     -17.39392180       0.00000933       0.00008798      -0.00002784
O       12.10816424       3.23620351     -17.18273996       0.00003269       0.00019646      -0.00007175
O       11.94970691       1.65221317     -15.27610836      -0.00008889      -0.00001334      -0.00010264
O       14.12118095       2.53434276     -16.07406291      -0.00008512       0.00014399      -0.00004855
H       11.74392102       2.45767691     -14.72961530       0.00000392      -0.00003514      -0.00004827
H       14.51263816       1.82228068     -15.54243366      -0.00005183      -0.00020659       0.00049127
