14
Properties=species:S:1:pos:R:3:forces:R:3 -2771.41157=T energy=-38103.05860223344 free_energy=-38103.05860223344 pbc="F F F"
S      -12.91340429      -0.17288592      -8.24687108       0.00002614      -0.00003577      -0.00005547
O      -14.25179241       0.32657287      -8.35882384      -0.00016975       0.00005710       0.00002480
O      -11.85838585       0.65480007      -7.69219494       0.00005078      -0.00001886      -0.00000328
O      -12.96842464      -1.55805254      -7.50383336       0.00004053      -0.00002900       0.00004326
O      -12.34207367      -0.58192597      -9.68951001       0.00008342       0.00001928      -0.00005810
H      -12.05661207      -1.94259501      -7.39066932       0.00001111       0.00000396      -0.00000061
H      -12.91314322      -1.27315617     -10.06154226      -0.00002235       0.00000017       0.00003530
S       -9.42403461      -1.90181942      -6.94505273      -0.00008495       0.00005545       0.00012687
O      -10.66897640      -2.66350383      -6.88799246       0.00006866       0.00000316      -0.00004089
O       -8.64084999      -1.93221873      -8.14161497      -0.00001621      -0.00000995      -0.00007802
O       -9.72379550      -0.43276172      -6.45706940      -0.00001173       0.00000140      -0.00002179
O       -8.50087860      -2.37513828      -5.73718318       0.00001359      -0.00003007      -0.00005144
H      -10.39745146      -0.01292664      -7.04774015       0.00003073      -0.00000917      -0.00000556
H       -8.95864052      -2.18963952      -4.89896586      -0.00002002      -0.00000783       0.00008479
