14
Properties=species:S:1:pos:R:3:forces:R:3 -2771.43820=T energy=-38103.019985871855 free_energy=-38103.019985871855 pbc="F F F"
S       -9.49599420      -3.44055427     -19.37624824       0.00021258       0.00000190      -0.00011306
O       -8.19569573      -3.50826759     -19.97258228      -0.00017881       0.00002313       0.00012010
O      -10.17249653      -2.16421942     -19.23033658       0.00003839      -0.00006711       0.00001320
O      -10.42876904      -4.47030457     -20.11518791       0.00001737       0.00003904       0.00009464
O       -9.46513753      -4.01614058     -17.87916878      -0.00013475       0.00045492      -0.00008005
H      -11.34991259      -4.44204757     -19.75175242      -0.00003935      -0.00004329      -0.00001049
H       -9.22239577      -4.95514637     -17.91286346       0.00008908      -0.00041402      -0.00004501
S      -13.59057775      -3.22222588     -18.75662530       0.00001302       0.00003548       0.00013340
O      -12.99793217      -4.30146132     -19.52603609       0.00007236      -0.00010145      -0.00004339
O      -14.98711859      -2.92828478     -18.87593686      -0.00013602       0.00006449      -0.00006694
O      -13.21649335      -3.59846325     -17.24269408       0.00001210      -0.00000738       0.00013313
O      -12.78743311      -1.88775832     -18.98164171      -0.00002611       0.00007100      -0.00005804
H      -13.38803227      -2.82669863     -16.67987591       0.00001645      -0.00007869      -0.00008823
H      -11.81080680      -2.04643555     -18.93250413       0.00004369       0.00002201       0.00001075
