14
Properties=species:S:1:pos:R:3:forces:R:3 -2771.17479=T energy=-38102.89287322757 free_energy=-38102.89287322757 pbc="F F F"
S      -11.75729181      -4.82935272     -15.92293321       0.00036838       0.00025884       0.00004474
O      -10.81638885      -5.52705017     -16.75640395      -0.00025558       0.00003636       0.00001061
O      -13.16192757      -5.14360350     -15.95758614      -0.00005805      -0.00018650      -0.00005585
O      -11.20195368      -4.94725558     -14.44296821      -0.00015372      -0.00002491       0.00007391
O      -11.66508077      -3.25508633     -16.20843967       0.00013942       0.00005732      -0.00000736
H      -11.65497210      -4.30914994     -13.83233377       0.00005253      -0.00004233       0.00000016
H      -10.86980314      -2.85780858     -15.78290953      -0.00003944      -0.00009760      -0.00008040
S      -11.63703592      -1.71020501     -13.40525681       0.00016877      -0.00035936       0.00002129
O      -11.80849709      -2.96844850     -12.70013104      -0.00008339       0.00013196      -0.00012636
O      -10.53634560      -1.56962479     -14.32392432       0.00004387       0.00004983       0.00006402
O      -13.00844429      -1.36268539     -14.13581502      -0.00016356       0.00006667       0.00017688
O      -11.58214849      -0.50450858     -12.37351502      -0.00038576       0.00030014       0.00033188
H      -13.08022174      -1.98074089     -14.89271771      -0.00008047      -0.00010493      -0.00012957
H      -12.39689799      -0.49999460     -11.84044404       0.00044734      -0.00008543      -0.00032368
