14
Properties=species:S:1:pos:R:3:forces:R:3 -2771.20389=T energy=-38102.90799859051 free_energy=-38102.90799859051 pbc="F F F"
S      -10.01546943       0.29101842      -0.98286347      -0.00004793       0.00005711      -0.00006810
O      -10.09675010      -0.47667344       0.24020096      -0.00001439       0.00000918       0.00002742
O       -9.34946334      -0.21112709      -2.14784179       0.00003415      -0.00009407      -0.00011826
O      -11.45893403       0.76219018      -1.42045443       0.00000882       0.00001121       0.00006551
O       -9.31281582       1.69748986      -0.62040124      -0.00004712       0.00005050       0.00020542
H      -11.91944334       1.21713034      -0.67218915       0.00001056      -0.00005644      -0.00000657
H       -9.56622011       1.93690566       0.29310790       0.00002587       0.00001493      -0.00008914
S      -12.04581184       3.74617389       0.49775408       0.00001241      -0.00011849       0.00000381
O      -12.69305489       2.48812500       0.19305536       0.00005041       0.00008249       0.00004160
O      -12.77882892       4.87586511       0.98533222      -0.00001213       0.00002110       0.00001526
O      -10.88063800       3.37247673       1.54594419      -0.00002596       0.00019589       0.00011809
O      -11.19708733       4.21836871      -0.75886604      -0.00033850       0.00043750       0.00006351
H      -10.75774491       4.13415604       2.13717875      -0.00001873      -0.00020592      -0.00012764
H      -10.64741297       3.47004185      -1.07108943       0.00036251      -0.00040481      -0.00013119
