14
Properties=species:S:1:pos:R:3:forces:R:3 -2771.43784=T energy=-38103.058602081386 free_energy=-38103.058602081386 pbc="F F F"
S        0.94728680      -1.63724608      -4.06935765      -0.00005220      -0.00009437      -0.00015448
O        1.90085686      -1.17323583      -5.05991144      -0.00007391      -0.00006990       0.00010324
O        0.57002674      -0.79990591      -2.96944301       0.00000727       0.00006419       0.00010180
O       -0.33786587      -2.02663278      -4.94782767      -0.00003213       0.00004390      -0.00008798
O        1.39327229      -3.03105681      -3.49297777       0.00009798       0.00003380      -0.00001998
H       -0.96471060      -2.50384816      -4.38067590       0.00008119       0.00002883       0.00002919
H        1.67751158      -3.64788485      -4.22154750      -0.00001231       0.00001435      -0.00003237
S        2.81284337      -4.33588133      -6.53851670      -0.00001806      -0.00010564      -0.00004102
O        2.39922689      -4.75154418      -5.20081727      -0.00002304       0.00004074       0.00003338
O        1.88416341      -4.44207518      -7.62126523       0.00000030       0.00004549       0.00006258
O        3.45261351      -2.89879386      -6.43085524      -0.00009224      -0.00004032       0.00000028
O        4.12145611      -5.15564521      -6.92672281       0.00013098      -0.00006300      -0.00010427
H        2.78609155      -2.25958473      -6.07571871       0.00001695       0.00007470       0.00005851
H        4.82523833      -4.94706897      -6.28816816      -0.00003096       0.00002718       0.00005098
