14
Properties=species:S:1:pos:R:3:forces:R:3 -2771.09553=T energy=-38102.64213644625 free_energy=-38102.64213644625 pbc="F F F"
S        0.00834521      -3.08281708      -0.34781046       0.00078119      -0.00012903       0.00018746
O        1.35988458      -3.43149295      -0.72833396      -0.00003898      -0.00004491      -0.00002713
O       -1.04667557      -2.87853759      -1.29319612      -0.00049531      -0.00021119      -0.00022194
O       -0.43376274      -4.19940985       0.71616263       0.00050083       0.00006929      -0.00008681
O        0.06752750      -1.77151542       0.56780428      -0.00053321       0.00014651      -0.00019861
H       -1.40522483      -4.24055246       0.74190808      -0.00016853      -0.00003384       0.00041542
H        0.85102434      -1.81910953       1.14270904       0.00000900       0.00018767       0.00009038
S        3.35643594      -5.56986153      -3.18596494      -0.00017488      -0.00020946      -0.00009007
O        4.59460638      -5.61768445      -3.91505072       0.00031185      -0.00027719       0.00005233
O        2.85026311      -6.69643291      -2.45005806      -0.00030792       0.00021547      -0.00021970
O        3.43011931      -4.27509310      -2.27226774      -0.00004475      -0.00014108       0.00009505
O        2.16273118      -5.17048469      -4.19975451       0.00000243       0.00035006      -0.00014841
H        2.58494866      -4.14065606      -1.77992445      -0.00013255      -0.00001829       0.00004926
H        2.40469210      -4.33943974      -4.64358539       0.00029081       0.00009607       0.00010276
