14
Properties=species:S:1:pos:R:3:forces:R:3 -2771.42658=T energy=-38103.05860314577 free_energy=-38103.05860314577 pbc="F F F"
S        1.25571350      -3.27054360       1.18936688      -0.00004192       0.00017441       0.00031247
O        2.25423845      -4.07224202       1.89187961       0.00002861       0.00010920      -0.00004828
O        1.49240163      -2.89478209      -0.17035524       0.00006381       0.00001764      -0.00010478
O       -0.15197418      -3.95159359       1.39105076      -0.00028095       0.00026238       0.00013480
O        1.00643740      -1.94358129       2.03332571       0.00014882      -0.00025338      -0.00027610
H       -0.13904422      -4.86780510       1.01776568       0.00009630      -0.00021605      -0.00010573
H        0.66880567      -2.18781908       2.91248178      -0.00000811       0.00004940       0.00012937
S        1.10430587      -7.36589599       0.93447106       0.00016830      -0.00041773      -0.00001669
O        1.05675058      -8.76883217       1.22223487       0.00011873       0.00050735      -0.00014007
O       -0.11717037      -6.58873033       0.83548527      -0.00008607      -0.00004470      -0.00012399
O        2.09978751      -6.69169148       1.94851733      -0.00000823      -0.00010931      -0.00013860
O        1.82404413      -7.10395003      -0.47561430      -0.00010068      -0.00004711       0.00030693
H        2.15886605      -5.70917593       1.79600858      -0.00002737      -0.00002302       0.00002734
H        2.72851867      -7.45329951      -0.42859668      -0.00007143      -0.00000918       0.00004320
