14
Properties=species:S:1:pos:R:3:forces:R:3 -2771.42881=T energy=-38103.05860192933 free_energy=-38103.05860192933 pbc="F F F"
S        1.91605495      -3.64673316      -4.90598981      -0.00003397       0.00029484      -0.00012794
O        2.90716472      -4.53063317      -4.37450671       0.00019610      -0.00025910       0.00012696
O        0.60759331      -4.18117788      -5.27420967      -0.00018179      -0.00008124      -0.00007659
O        1.69035903      -2.46904198      -3.85846913      -0.00007574       0.00018373      -0.00003700
O        2.45610984      -2.79198298      -6.11589010      -0.00003360       0.00001383      -0.00004426
H        1.15918775      -1.77064202      -4.27878943       0.00011533      -0.00013731       0.00008251
H        2.54476085      -3.36362463      -6.91859258      -0.00003314      -0.00000553       0.00003241
S        1.34176215      -5.16848659      -8.67618390      -0.00000561      -0.00006978      -0.00010084
O        0.85195637      -5.45687629      -9.99155741       0.00006419       0.00003564       0.00014281
O        2.31077383      -4.10959082      -8.46275617       0.00000727      -0.00000864      -0.00002587
O        0.10445016      -4.97635324      -7.72435798       0.00004086      -0.00007081      -0.00001803
O        2.05948899      -6.45832474      -8.04678220       0.00028577       0.00048983       0.00002050
H        0.39412710      -4.76135924      -6.79594787       0.00002252      -0.00000976       0.00006291
H        1.40988752      -7.17795560      -7.99720286      -0.00036803      -0.00037572      -0.00003746
