14
Properties=species:S:1:pos:R:3:forces:R:3 -2771.43306=T energy=-38103.05420331942 free_energy=-38103.05420331942 pbc="F F F"
S      -14.04101468       1.31185775      -8.99213615       0.00032385      -0.00004819       0.00033594
O      -13.53172995       2.44135233      -9.74590910       0.00003755       0.00013292      -0.00008541
O      -15.24283858       0.64358367      -9.39599826      -0.00029331      -0.00027430      -0.00004810
O      -12.80839030       0.28202490      -8.97878888       0.00015503       0.00021948       0.00023860
O      -14.18070591       1.68598383      -7.47041667      -0.00025637       0.00026521      -0.00005623
H      -13.01827268      -0.43817863      -8.36220880      -0.00002137      -0.00027521      -0.00036627
H      -13.40744812       2.22845887      -7.15807182       0.00002452       0.00012410      -0.00001900
S      -11.99487131       4.49469806      -7.25899726       0.00010907       0.00009052       0.00006248
O      -12.86563516       5.63920807      -7.25153358      -0.00017774       0.00012243      -0.00006632
O      -12.35833444       3.31313733      -6.49941056       0.00001687      -0.00021815       0.00009581
O      -11.62519676       4.07684435      -8.72986887       0.00063916       0.00023575      -0.00004905
O      -10.54873339       4.88148443      -6.72236618       0.00013138       0.00011308      -0.00005147
H      -12.40570660       3.63563194      -9.15143496      -0.00070921      -0.00038395      -0.00018229
H      -10.24173889       5.68102943      -7.18373798       0.00002061      -0.00010369       0.00019139
