14
Properties=species:S:1:pos:R:3:forces:R:3 -2771.09272=T energy=-38102.69301646152 free_energy=-38102.69301646152 pbc="F F F"
S      -12.98522173       4.34885931      -0.37307333      -0.00022650      -0.00019388      -0.00012126
O      -12.71947402       3.27848204       0.54999510      -0.00000888      -0.00036371       0.00006640
O      -13.51634699       4.11373246      -1.68889325       0.00002611      -0.00010121       0.00015533
O      -13.98453634       5.33807899       0.42573239      -0.00010155       0.00046489      -0.00021958
O      -11.71605224       5.27521084      -0.55999054       0.00050448       0.00030901      -0.00021937
H      -14.11067253       6.14148316      -0.10789430      -0.00013666      -0.00013591       0.00025908
H      -11.32308218       5.53756566       0.31028507      -0.00003117      -0.00003394       0.00003355
S       -9.27664797       6.33166167       2.22504191      -0.00008049       0.00012136      -0.00023139
O       -8.40607969       5.21868844       2.00703210      -0.00001955       0.00004292      -0.00003933
O      -10.51379474       6.46918336       1.47701887      -0.00001109      -0.00001007      -0.00006041
O       -9.58175269       6.43613166       3.78061727       0.00024492      -0.00038239       0.00022684
O       -8.47051626       7.71667084       2.08591987      -0.00027654      -0.00031033       0.00081238
H      -10.01778590       7.28594033       3.96730386      -0.00025349       0.00042062       0.00020605
H       -8.10216492       7.77534299       1.18664069       0.00037036       0.00017289      -0.00086844
