14
Properties=species:S:1:pos:R:3:forces:R:3 -2771.18463=T energy=-38102.89286861522 free_energy=-38102.89286861522 pbc="F F F"
S       12.83011355       6.83555669     -16.57132209      -0.00021195       0.00020932      -0.00017132
O       13.96365450       6.10811838     -17.08238134       0.00024009      -0.00009120       0.00006270
O       11.55225991       6.71499940     -17.25118745       0.00013816       0.00001037       0.00017255
O       12.66856290       6.48827318     -15.03037246      -0.00026260       0.00069217       0.00033597
O       13.18140426       8.38398071     -16.45137668       0.00011712       0.00033450      -0.00039160
H       12.00710035       7.08300214     -14.63445258      -0.00001398      -0.00073291      -0.00042422
H       13.43195103       8.67870360     -17.35162175      -0.00007781      -0.00010991      -0.00008752
S       13.13512464       7.66056602     -20.48453890       0.00006748       0.00006336       0.00005231
O       13.71032268       7.02033125     -21.63607852      -0.00021303       0.00026476       0.00010633
O       12.57342795       8.98358251     -20.56838518       0.00000513      -0.00000072       0.00041234
O       12.06599271       6.64289314     -19.90668595       0.00006048       0.00001466      -0.00001071
O       14.22256957       7.73248887     -19.30954434       0.00010860      -0.00028108      -0.00008731
H       11.78428222       6.89326889     -18.98843463       0.00007401      -0.00013247       0.00010810
H       14.33659817       6.85746102     -18.87053167      -0.00003178      -0.00024092      -0.00007825
