14
Properties=species:S:1:pos:R:3:forces:R:3 -2771.08254=T energy=-38102.695488706035 free_energy=-38102.695488706035 pbc="F F F"
S       -8.46248840       7.40201220      -0.37103691      -0.00057192       0.00017791      -0.00063942
O       -7.53140435       7.42548100       0.73534248       0.00029504      -0.00015853       0.00047088
O       -8.04662277       7.35772595      -1.73989373      -0.00021908      -0.00012372       0.00029659
O       -9.44635151       6.17326671      -0.05667553       0.00009003       0.00037639      -0.00029957
O       -9.45633984       8.64832375      -0.22574947       0.00056078      -0.00015238      -0.00049554
H       -9.87952518       5.90244997      -0.88339908       0.00011392       0.00006998       0.00029304
H       -9.82162207       8.65907211       0.67576310      -0.00030119      -0.00022167       0.00036835
S       -4.77681528       5.20176017       1.94611648      -0.00010904      -0.00007182      -0.00015428
O       -3.83744761       6.28319414       2.04602048      -0.00026155      -0.00044024      -0.00007528
O       -4.81833879       4.36333153       0.76989215       0.00004554       0.00040793       0.00034690
O       -4.54018198       4.27460905       3.23238129      -0.00018638      -0.00043079       0.00018239
O       -6.24049564       5.68798997       2.29554095      -0.00006285       0.00010476      -0.00053250
H       -5.09286946       3.47750286       3.14509520       0.00043093       0.00057738      -0.00013934
H       -6.60435066       6.24011901       1.56093697       0.00017568      -0.00011525       0.00037801
