14
Properties=species:S:1:pos:R:3:forces:R:3 -2771.41944=T energy=-38103.08784908911 free_energy=-38103.08784908911 pbc="F F F"
S      -11.53091934       3.90425688      -0.72025666       0.00010835      -0.00011823      -0.00002638
O      -12.84594108       4.15932253      -1.24431040      -0.00066876       0.00005662      -0.00053191
O      -10.78467857       4.98006375      -0.09838824       0.00019193      -0.00009948       0.00032556
O      -11.54043803       2.64940321       0.23019812       0.00020367       0.00030860       0.00021272
O      -10.57150268       3.35113983      -1.86445462       0.00021921       0.00011313      -0.00007668
H      -11.96094847       2.89261663       1.09508984      -0.00007308      -0.00018377       0.00003297
H      -11.01575327       2.61455467      -2.31835482      -0.00008870      -0.00005436       0.00022716
S      -11.95375952       4.59500276       3.28580918       0.00071983      -0.00007955       0.00006564
O      -12.26732799       3.28526181       2.74986501       0.00003541       0.00053179      -0.00010902
O      -12.97691883       5.60424992       3.34535478      -0.00053298       0.00002360      -0.00001097
O      -11.36466448       4.31080213       4.73763671      -0.00005549      -0.00025782       0.00025451
O      -10.65603313       5.15335363       2.59133327      -0.00017865      -0.00033887      -0.00025994
H      -11.12435658       5.15789143       5.15071068       0.00004772       0.00007338      -0.00011566
H      -10.80633642       5.21877839       1.61299451       0.00007150       0.00002491       0.00001191
