14
Properties=species:S:1:pos:R:3:forces:R:3 -2771.15249=T energy=-38102.76796052181 free_energy=-38102.76796052181 pbc="F F F"
S      -12.71742622       9.09909634      -4.23097292      -0.00005638       0.00004392       0.00005471
O      -12.44348909       8.02576048      -5.15818638      -0.00012314       0.00021708      -0.00005078
O      -13.34180384      10.32242069      -4.63659999      -0.00031659       0.00012732       0.00025187
O      -13.54043215       8.40261475      -3.04673394       0.00009633       0.00007373       0.00050172
O      -11.36430376       9.50477871      -3.46330034       0.00011963       0.00024317      -0.00010933
H      -13.71433719       9.06859499      -2.36065931       0.00017615      -0.00059757      -0.00042491
H      -10.82820652       8.70031564      -3.32023033       0.00002425       0.00024290      -0.00008533
S       -8.77923369       8.02658348      -5.67808986       0.00025539      -0.00003476       0.00001118
O       -7.72536224       8.27047443      -4.72972176      -0.00006473      -0.00030243       0.00016093
O       -8.52587396       7.40744177      -6.95017515       0.00030345      -0.00001389       0.00039852
O       -9.91358204       7.23103154      -4.88947643      -0.00024021       0.00015619      -0.00016689
O       -9.52228005       9.40401261      -6.02107978      -0.00011075      -0.00006616      -0.00020150
H      -10.78389031       7.33198717      -5.34544225      -0.00009877      -0.00002149      -0.00010474
H       -9.89756222       9.78659871      -5.20370756       0.00003528      -0.00006788      -0.00023549
