14
Properties=species:S:1:pos:R:3:forces:R:3 -2771.45544=T energy=-38103.01998546637 free_energy=-38103.01998546637 pbc="F F F"
S      -12.28450463       1.63500752     -12.15730804       0.00005855      -0.00015042      -0.00001388
O      -12.85128488       0.32161424     -12.40575817      -0.00000346      -0.00009274       0.00002795
O      -12.28712951       2.63237900     -13.18502804      -0.00004280       0.00001228      -0.00007981
O      -13.08848781       2.14678459     -10.86689181      -0.00004967      -0.00000454       0.00000185
O      -10.81572297       1.49973356     -11.60879459       0.00014052      -0.00002988      -0.00006439
H      -12.63138740       2.92218192     -10.50409363      -0.00000356       0.00007316       0.00012202
H      -10.75900214       0.80055439     -10.90928240      -0.00000371       0.00002759       0.00014812
S      -11.34390976      -1.61462170      -9.75882623      -0.00016267       0.00023533      -0.00003023
O      -10.89948024      -2.88880218      -9.27935329       0.00016254      -0.00038338      -0.00003940
O      -10.39213410      -0.54248510      -9.98822147      -0.00009507       0.00001919      -0.00013137
O      -12.21755345      -1.85234280     -11.04597429       0.00014654       0.00019886      -0.00002605
O      -12.39892851      -0.96145478      -8.74207830      -0.00012461       0.00016303       0.00011034
H      -12.52897354      -0.99365512     -11.42945464      -0.00004570      -0.00005398      -0.00007054
H      -13.18277399      -1.53205445      -8.69953756       0.00002301      -0.00001412       0.00004543
