14
Properties=species:S:1:pos:R:3:forces:R:3 -2771.12036=T energy=-38102.666614310234 free_energy=-38102.666614310234 pbc="F F F"
S      -14.17275897       9.80428903      -3.72708805      -0.00000096      -0.00004361       0.00026273
O      -13.15443137       9.04151407      -4.39774684       0.00011575       0.00004590       0.00005764
O      -14.90017860      10.85750481      -4.38331707      -0.00006092       0.00010884       0.00002636
O      -15.22386785       8.69812085      -3.19077519       0.00029777      -0.00033331      -0.00030130
O      -13.63566564      10.40635028      -2.36652000      -0.00002483      -0.00041912      -0.00012507
H      -15.87501937       9.14555362      -2.62337090      -0.00021308       0.00041020       0.00025200
H      -13.15777794       9.72578855      -1.83323298      -0.00006116       0.00022565      -0.00019797
S      -11.36399916       8.50590542       0.08091187      -0.00012809      -0.00029765       0.00039924
O      -10.91528902       7.18892392      -0.25567163       0.00001693       0.00038695       0.00001368
O      -12.62519499       9.04906199      -0.37181530       0.00010842       0.00011575      -0.00000738
O      -11.30132775       8.62709971       1.67623960      -0.00006266       0.00051794      -0.00004858
O      -10.26678664       9.59049802      -0.36304758      -0.00062887      -0.00004186      -0.00002816
H      -11.51989095       9.53960944       1.93303820       0.00018404      -0.00058035      -0.00032078
H       -9.39341078       9.16446949      -0.36935445       0.00045778      -0.00009542       0.00001749
