14
Properties=species:S:1:pos:R:3:forces:R:3 -2771.23448=T energy=-38102.863172384954 free_energy=-38102.863172384954 pbc="F F F"
S      -11.02277664       6.61110455      -5.76369356      -0.00015754      -0.00006689      -0.00009274
O       -9.59004564       6.71714235      -5.76560994      -0.00001264      -0.00003501       0.00012276
O      -11.77577682       6.90914989      -6.96313375       0.00020730      -0.00001259       0.00011617
O      -11.46625741       5.19049400      -5.21577405      -0.00018476       0.00001712       0.00015140
O      -11.66970578       7.52369820      -4.63673384      -0.00000915      -0.00006473       0.00012614
H      -11.18697126       4.52018817      -5.87615072      -0.00004218       0.00000812      -0.00009918
H      -11.21204396       7.36419732      -3.79299653       0.00003157       0.00026099      -0.00016483
S      -11.57727437       3.84563075      -8.96423095       0.00001895      -0.00004374      -0.00012278
O      -10.16286758       4.00170057      -9.16685965      -0.00008249      -0.00000882      -0.00017377
O      -12.38011618       2.98128128      -9.78622097      -0.00011051       0.00004077       0.00011384
O      -11.71531805       3.36322977      -7.41405568       0.00019927      -0.00000602      -0.00003779
O      -12.30720032       5.24136842      -8.89695877       0.00003739       0.00006073       0.00003244
H      -12.66321181       3.28675452      -7.20033140       0.00004674      -0.00016832      -0.00000854
H      -11.91385897       5.81279789      -8.18655948       0.00005794       0.00001853       0.00003696
