14
Properties=species:S:1:pos:R:3:forces:R:3 -2771.17694=T energy=-38102.70743915079 free_energy=-38102.70743915079 pbc="F F F"
S        7.76560809       6.85954780     -15.44885941      -0.00062450       0.00018017       0.00015929
O        8.29739640       6.80760244     -16.79434574      -0.00009501       0.00003532      -0.00002742
O        6.49163642       7.47065218     -15.18821375       0.00063890      -0.00031766      -0.00026792
O        7.79640114       5.36173348     -14.91102490      -0.00018567       0.00011402       0.00064770
O        8.88482916       7.48613509     -14.49012837       0.00012542      -0.00002748       0.00007443
H        7.43101921       5.33902565     -14.00923690       0.00016733      -0.00008191      -0.00053335
H        9.26634858       8.26536361     -14.94928967      -0.00007408       0.00000462      -0.00002638
S       10.15894515       9.79373984     -18.33659836      -0.00008909      -0.00019727      -0.00012134
O       10.59211075       8.98243293     -19.44184638      -0.00011531       0.00000715       0.00022185
O       10.88416511      10.96016124     -17.90815152       0.00007235       0.00018990       0.00009120
O        8.64408021      10.22019064     -18.70384487       0.00010329      -0.00006184       0.00002883
O        9.90903951       8.89914627     -17.05090975       0.00017083       0.00022227      -0.00031970
H        8.24382268      10.62555636     -17.91557923       0.00003025       0.00003733       0.00003853
H        9.39695106       8.08287962     -17.29426619      -0.00012460      -0.00010440       0.00003422
