14
Properties=species:S:1:pos:R:3:forces:R:3 -2771.40923=T energy=-38103.085856098085 free_energy=-38103.085856098085 pbc="F F F"
S       11.49051447       2.43285699     -14.72142916       0.00036529       0.00005218       0.00047006
O       10.07131141       2.59892354     -14.80062125      -0.00012040      -0.00009871      -0.00009510
O       12.35564062       3.60166637     -14.84526692      -0.00028825      -0.00034618      -0.00002069
O       11.81944487       1.71336568     -13.33780571      -0.00058077       0.00005552      -0.00009742
O       12.02049382       1.31773543     -15.70187170       0.00014843       0.00016231       0.00045705
H       12.75298626       1.43962644     -13.33916685       0.00071339       0.00003826      -0.00024724
H       12.04103010       1.66276381     -16.63209228      -0.00008911       0.00003890      -0.00038789
S       13.27413712       3.39542973     -18.31938065       0.00020825       0.00008579      -0.00038582
O       14.70558459       3.29579213     -18.21638660      -0.00012994      -0.00035548       0.00034752
O       12.46146650       2.20075681     -18.19511080      -0.00013435       0.00028867       0.00007596
O       12.71807866       4.51185969     -17.36104798      -0.00008314       0.00027677      -0.00010446
O       12.85557064       4.02219657     -19.72090850       0.00034360       0.00064497      -0.00034705
H       12.73419553       4.18505123     -16.42182911      -0.00016510      -0.00012134       0.00024911
H       13.38176369       4.82512671     -19.87686539      -0.00018802      -0.00072159       0.00008611
