14
Properties=species:S:1:pos:R:3:forces:R:3 -2771.15258=T energy=-38102.72524664548 free_energy=-38102.72524664548 pbc="F F F"
S       -5.40738892      -5.08634642      -6.50412756      -0.00022441       0.00011211       0.00011249
O       -4.36301918      -5.58137148      -7.35307084       0.00005555      -0.00002873      -0.00013363
O       -5.94376150      -3.75638955      -6.66804439       0.00015736      -0.00002789      -0.00000551
O       -6.59850883      -6.15386306      -6.57578356       0.00038259      -0.00017160      -0.00041047
O       -5.02489187      -5.29635855      -4.97220933      -0.00000766      -0.00003840      -0.00001539
H       -7.32363993      -5.84617674      -6.00366248      -0.00035123       0.00011315       0.00043511
H       -4.40862798      -4.57669074      -4.68912497       0.00005057       0.00000921       0.00006281
S       -2.11433148      -5.20168456      -3.12500788      -0.00010926       0.00020292      -0.00010947
O       -2.89155246      -4.17126720      -3.78053174      -0.00009286       0.00001287      -0.00006199
O       -0.69332524      -5.10993814      -2.96191725       0.00019968      -0.00009671       0.00007728
O       -2.81805246      -5.38576641      -1.69592718      -0.00030905       0.00017413      -0.00015290
O       -2.42101825      -6.60440452      -3.82582151      -0.00014707      -0.00006947      -0.00014791
H       -2.24474989      -5.93502116      -1.13533969       0.00025338      -0.00016627       0.00035684
H       -3.33199258      -6.58227959      -4.18884099       0.00014291      -0.00002519      -0.00000742
