14
Properties=species:S:1:pos:R:3:forces:R:3 -2771.23468=T energy=-38102.87574590233 free_energy=-38102.87574590233 pbc="F F F"
S       -7.50267774      -4.93238534     -19.53855709       0.00005155      -0.00001184       0.00031127
O       -7.56654076      -6.08298909     -18.67959491       0.00015628       0.00032330      -0.00037658
O       -6.25002854      -4.33910741     -19.92301902      -0.00026244      -0.00021136       0.00001734
O       -8.39268862      -5.25324241     -20.80685040      -0.00001961       0.00018477       0.00020140
O       -8.34360924      -3.72267107     -18.86544836      -0.00008210      -0.00023840      -0.00003838
H       -8.61843026      -4.42510495     -21.29671477       0.00008958      -0.00016896       0.00008194
H       -9.29266787      -3.95093387     -18.84173077       0.00015164       0.00004815      -0.00003475
S      -10.22697798      -2.08990966     -21.34474085      -0.00019531      -0.00015981       0.00004290
O       -9.66225783      -3.26146227     -21.97635124      -0.00023800      -0.00011778       0.00012353
O      -11.01333919      -1.14373224     -22.07868879      -0.00011420       0.00058150      -0.00033572
O      -11.08523210      -2.66108597     -20.10777358       0.00042731      -0.00051123      -0.00003213
O       -9.07918577      -1.28961020     -20.59758364      -0.00021350       0.00034204      -0.00013091
H      -11.76687330      -2.00544848     -19.88479083       0.00001217       0.00016931      -0.00013947
H       -8.59579324      -1.91331012     -20.01448703       0.00023638      -0.00022965       0.00030970
