3
Properties=species:S:1:pos:R:3:forces:R:3 -76.4094364557=T PM7_SP:=T -0.0918181068636=T energy=-2078.6315483759236 free_energy=-2078.6315483759236 pbc="F F F"
O        0.00000000      -0.00000000       0.11699506      -0.00000000      -0.00000000      -0.00034110
H       -0.00000000       0.75988551      -0.47591353       0.00000000      -0.00018616       0.00017055
H       -0.00000000      -0.75988551      -0.47591353       0.00000000       0.00018616       0.00017055
