4
Properties=species:S:1:pos:R:3:forces:R:3 -56.5464988594=T PM7_SP:=T -0.00624849966078=T energy=-1538.2430644673275 free_energy=-1538.2430644673275 pbc="F F F"
N        0.00010222       0.13010281       0.00000000      -0.00010985       0.00000644      -0.00000006
H        0.93907345      -0.25777384      -0.00000000      -0.00012350      -0.00003233       0.00000001
H       -0.46958784      -0.25731449       0.81327093       0.00011671       0.00001296       0.00014789
H       -0.46958783      -0.25731448      -0.81327093       0.00011666       0.00001294      -0.00014785
