7
Properties=species:S:1:pos:R:3:forces:R:3 -700.12182991=T PM7_SP:=T -0.274218651033=T energy=-19051.130896129624 free_energy=-19051.130896129624 pbc="F F F"
S       -0.00001334      -0.00001604       0.15619654      -0.00007164      -0.00042957      -0.00008157
O       -1.24291630      -0.04674926      -0.86912786      -0.00012982      -0.00016138      -0.00018775
O        0.01169135      -1.27009363       0.82725767       0.00013950       0.00013936       0.00016439
O        1.24276815       0.04677696      -0.86930014       0.00003880       0.00020850       0.00014991
O       -0.01166496       1.26997722       0.82741668       0.00018984      -0.00005212      -0.00008769
H       -1.47085350       0.86630613      -1.11814485      -0.00003624       0.00025235      -0.00001395
H        1.47098869      -0.86630111      -1.11799813      -0.00013040       0.00004277       0.00005672
