10
-135.134507299
N  0.000000  0.562243  -0.146879
C  1.210744  -0.222499  0.020329
C  -1.210744  -0.222499  0.020329
H  0.000000  1.340270  0.502495
H  1.270583  -0.969284  -0.778937
H  2.086897  0.425824  -0.064932
H  1.264531  -0.759531  0.984723
H  -1.270583  -0.969284  -0.778937
H  -1.264531  -0.759530  0.984723
H  -2.086897  0.425824  -0.064932
