14
-456.860520525 pm7: -0.305173156802
C  -1.620510  -0.021131  0.036781
C  -0.707951  1.121060  -0.345285
C  0.686090  1.085226  0.267476
C  1.489613  -0.105640  -0.192015
O  -2.602130  -0.349083  -0.584608
O  -1.262559  -0.620330  1.190959
O  1.138141  -0.914647  -1.018408
O  2.684653  -0.169705  0.423739
H  -0.664256  1.132249  -1.436091
H  -1.218133  2.040141  -0.036074
H  0.648348  1.070233  1.360147
H  1.243576  1.985873  -0.011730
H  -1.902134  -1.328083  1.351345
H  3.144304  -0.947386  0.077203
