17
-835.267166053
S  1.470531  -0.221269  0.017942
O  0.391137  -1.123138  -0.285332
O  2.819334  -0.644302  0.270437
O  1.472738  0.848363  -1.182569
O  1.057093  0.687382  1.267736
H  2.315161  1.326746  -1.182855
H  0.098336  0.855172  1.241526
N  -2.588871  -0.031808  -0.564618
C  -3.595301  -0.752344  0.193797
C  -2.119212  1.156261  0.105078
H  -1.804808  -0.639417  -0.774804
H  -4.493219  -0.132479  0.293099
H  -3.875599  -1.662778  -0.341189
H  -3.265059  -1.033892  1.210397
H  -2.928451  1.889692  0.189526
H  -1.772760  0.970457  1.149815
H  -1.315339  1.619511  -0.475690
