17
-835.302995142
S  1.290257  -0.146501  -0.010571
O  2.449167  -1.021489  0.009205
O  0.449015  -0.177863  -1.231930
O  0.437166  -0.211435  1.211247
O  1.877097  1.382952  -0.034359
H  -1.188601  -0.091931  0.767296
H  2.735411  1.365135  0.408686
N  -1.900428  -0.014605  -0.005621
C  -2.539312  1.314629  0.016411
C  -2.822237  -1.164713  0.003260
H  -1.222174  -0.079223  -0.802472
H  -3.138836  1.415147  0.922501
H  -1.754633  2.071561  0.007035
H  -3.174321  1.429552  -0.863478
H  -3.431148  -1.136048  0.908253
H  -3.465846  -1.124282  -0.877008
H  -2.231233  -2.080488  -0.013661
