17
-835.302995154
S  -1.290346  0.146526  -0.010813
O  -2.449820  1.020781  0.008665
O  -0.449347  0.177439  -1.232189
O  -0.437287  0.212919  1.211040
O  -1.875983  -1.383439  -0.033666
H  1.188152  0.091953  0.766954
H  -2.731931  -1.367155  0.414010
N  1.900335  0.014567  -0.005812
C  2.539513  -1.314506  0.016428
C  2.821886  1.164894  0.003522
H  1.222400  0.079139  -0.802785
H  3.138645  -1.414919  0.922796
H  1.755035  -2.071632  0.006600
H  3.175033  -1.429207  -0.863129
H  3.431036  1.135733  0.908334
H  3.465238  1.125233  -0.876973
H  2.230678  2.080555  -0.012604
