17
-835.301325365
S  -1.210130  -0.152667  0.037827
O  -0.366125  -0.234271  1.233380
O  -2.404000  -0.976627  -0.032913
O  -1.732981  1.402127  0.059472
O  -0.360860  -0.233442  -1.204544
H  -2.573096  1.428218  -0.416739
H  1.055905  -0.086154  -0.860261
N  2.102385  0.027205  -0.536562
C  2.474965  -1.171332  0.251948
C  2.207727  1.296480  0.222564
H  2.672074  0.079522  -1.379391
H  1.781243  -1.236563  1.090670
H  2.362637  -2.053298  -0.379009
H  3.505949  -1.082421  0.600541
H  1.531344  1.223533  1.074794
H  3.237593  1.450301  0.551113
H  1.887308  2.115918  -0.421241
