17
-835.302995161
S  1.290303  0.146156  0.010664
O  0.448562  0.176365  1.231759
O  2.448040  1.022613  -0.008706
O  1.878543  -1.382657  0.035267
O  0.437705  0.210195  -1.211599
H  2.733090  -1.366177  -0.415078
H  -1.189014  0.090078  -0.768256
N  -1.900349  0.014031  0.005145
C  -2.542268  -1.313693  -0.016325
C  -2.819545  1.166229  -0.003111
H  -1.221208  0.077577  0.801523
H  -3.142062  -1.413245  -0.922349
H  -1.759399  -2.072485  -0.006594
H  -3.177550  -1.426778  0.863609
H  -3.429691  1.138604  -0.907311
H  -3.462094  1.127709  0.878014
H  -2.226409  2.080654  0.012650
