17
-835.265553307
S  1.297182  -0.091060  0.063731
O  1.495656  -1.410608  -0.466268
O  0.625695  0.190168  1.305081
O  2.750152  0.586109  0.108487
O  0.546854  0.804376  -1.037178
H  2.726566  1.358092  0.693431
H  0.722926  0.443696  -1.918934
N  -2.551629  -0.018308  0.613018
C  -2.964761  1.072419  -0.248911
C  -2.339611  -1.257639  -0.109380
H  -1.706521  0.233561  1.113173
H  -3.949679  0.849295  -0.674841
H  -3.055425  1.992308  0.335165
H  -2.269617  1.261081  -1.088091
H  -3.295746  -1.624560  -0.499683
H  -1.648308  -1.160146  -0.968407
H  -1.938326  -2.017261  0.566130
