17
-835.302995163
S  -1.290291  -0.146516  0.010700
O  -0.449362  -0.177494  1.232182
O  -2.449169  -1.021523  -0.009263
O  -1.877009  1.382960  0.034030
O  -0.436951  -0.211797  -1.211006
H  -2.734131  1.365725  -0.411332
H  1.188167  -0.092046  -0.766741
N  1.900403  -0.014649  0.005881
C  2.539217  1.314637  -0.016499
C  2.822312  -1.164688  -0.003448
H  1.222667  -0.079275  0.803006
H  3.138129  1.415185  -0.922989
H  1.754491  2.071513  -0.006622
H  3.174778  1.429549  0.862988
H  3.431061  -1.135697  -0.908537
H  3.466044  -1.124485  0.876737
H  2.231383  -2.080522  0.013258
