17
-835.302995140
S  -1.290304  -0.146614  0.010658
O  -2.449373  -1.021366  -0.008380
O  -0.448522  -0.177700  1.231655
O  -0.437876  -0.212129  -1.211587
O  -1.876504  1.383029  0.034761
H  1.189253  -0.092499  -0.768481
H  -2.732470  1.366860  -0.412879
N  1.900308  -0.014858  0.004996
C  2.538395  1.314795  -0.016266
C  2.822867  -1.164316  -0.003040
H  1.221303  -0.079795  0.801334
H  3.138612  1.415887  -0.921836
H  1.753233  2.071228  -0.007301
H  3.172610  1.429879  0.864177
H  3.433000  -1.135008  -0.907198
H  3.465274  -1.123731  0.878098
H  2.232519  -2.080541  0.012837
