17
-835.302995144
S  -1.290270  -0.146220  0.010716
O  -0.449525  -0.176336  1.232376
O  -2.447396  -1.023529  -0.010149
O  -1.879739  1.382140  0.035118
O  -0.436632  -0.209194  -1.210981
H  -2.734587  1.364677  -0.414615
H  1.187695  -0.090838  -0.766090
N  1.900539  -0.014283  0.006166
C  2.541391  1.314016  -0.016696
C  2.820727  -1.165681  -0.003569
H  1.223124  -0.078005  0.803579
H  3.139644  1.413679  -0.923714
H  1.757885  2.072135  -0.006086
H  3.177933  1.427869  0.862224
H  3.428274  -1.138215  -0.909512
H  3.465726  -1.125820  0.875708
H  2.228479  -2.080636  0.014563
