17
-835.302995165
S  1.290234  -0.144770  -0.010493
O  0.447971  -0.171904  -1.231350
O  2.444000  -1.026574  0.008671
O  1.885631  1.381143  -0.035733
O  0.437727  -0.204637  1.211975
H  2.741910  1.359879  0.411093
H  -1.189694  -0.083560  0.769030
N  -1.900853  -0.011790  -0.004787
C  -2.553383  1.310725  0.016335
C  -2.810962  -1.171281  0.002635
H  -1.220700  -0.071131  -0.800715
H  -3.155815  1.404816  0.921197
H  -1.776754  2.075900  0.008659
H  -3.187841  1.419268  -0.864763
H  -3.421639  -1.148854  0.906617
H  -3.453378  -1.137482  -0.878776
H  -2.210424  -2.080869  -0.013265
