17
-835.301325366
S  -1.210136  -0.152639  0.037787
O  -2.403566  -0.977207  -0.033303
O  -0.366181  -0.234207  1.233377
O  -0.360626  -0.232675  -1.204536
O  -1.733586  1.401928  0.059923
H  1.055930  -0.086011  -0.860270
H  -2.573293  1.428094  -0.416983
N  2.102462  0.027160  -0.536571
C  2.474891  -1.171367  0.252013
C  2.207769  1.296487  0.222543
H  2.672188  0.079433  -1.379377
H  1.781194  -1.236539  1.090782
H  2.362389  -2.053365  -0.378882
H  3.505909  -1.082652  0.600558
H  1.531240  1.223582  1.074672
H  3.237586  1.450214  0.551259
H  1.887524  2.115915  -0.421367
