17
-835.301325370
S  -1.210074  -0.152623  0.037827
O  -0.366062  -0.233840  1.233398
O  -2.403831  -0.976805  -0.032678
O  -1.733088  1.402065  0.059084
O  -0.360691  -0.233684  -1.204497
H  -2.573508  1.427935  -0.416574
H  1.055872  -0.086169  -0.860362
N  2.102387  0.027205  -0.536579
C  2.474809  -1.171332  0.252015
C  2.207591  1.296480  0.222567
H  2.672191  0.079508  -1.379334
H  1.781101  -1.236398  1.090772
H  2.362256  -2.053323  -0.378872
H  3.505828  -1.082610  0.600553
H  1.531188  1.223506  1.074790
H  3.237427  1.450418  0.551132
H  1.887093  2.115899  -0.421232
