17
-835.266181545
S  1.460510  -0.111078  -0.115145
O  2.837759  -0.463195  0.094409
O  0.712587  -0.445584  -1.296372
O  0.673554  -0.653079  1.169767
O  1.306861  1.481355  0.050243
H  -0.281232  -0.667151  0.984627
H  1.989084  1.804149  0.657265
N  -3.214418  0.126602  -0.165569
C  -2.282568  1.216640  0.052607
C  -2.610269  -1.177120  0.006281
H  -4.023096  0.224150  0.436744
H  -1.496671  1.181633  -0.708503
H  -2.797358  2.175302  -0.045850
H  -1.798067  1.195162  1.049479
H  -1.818469  -1.313180  -0.738693
H  -2.179318  -1.337502  1.019617
H  -3.351165  -1.964619  -0.151090
