17
-835.298400352
S  1.169398  -0.084283  0.036495
O  0.437907  0.382474  1.228159
O  1.687504  -1.436247  0.064391
O  0.359563  0.236024  -1.198916
O  2.490399  0.850460  -0.101839
H  -1.062922  0.123373  -0.869008
H  2.216150  1.774696  -0.042102
N  -2.105866  -0.001364  -0.534303
C  -2.485858  1.192864  0.255682
C  -2.180470  -1.269391  0.232827
H  -2.685128  -0.069455  -1.369424
H  -1.764258  1.284353  1.068509
H  -2.424016  2.072116  -0.386082
H  -3.500545  1.078210  0.642414
H  -1.526258  -1.170265  1.099844
H  -3.210061  -1.456152  0.544171
H  -1.817281  -2.081323  -0.397526
