17
-835.301325333
S  1.210088  0.152582  0.037740
O  0.366038  0.233605  1.233336
O  2.403471  0.977334  -0.032835
O  1.734144  -1.401833  0.058964
O  0.360561  0.232942  -1.204488
H  2.576456  -1.426249  -0.413409
H  -1.056100  0.085989  -0.860287
N  -2.102625  -0.027202  -0.536541
C  -2.474833  1.171394  0.252060
C  -2.208153  -1.296481  0.222582
H  -2.672422  -0.079366  -1.379308
H  -1.781490  1.236017  1.091149
H  -2.361529  2.053425  -0.378642
H  -3.506067  1.083159  0.600093
H  -1.531403  -1.223819  1.074556
H  -3.237943  -1.449894  0.551539
H  -1.888333  -2.116013  -0.421409
