17
-835.301325313
S  1.210123  0.152695  0.037852
O  2.404496  0.975950  -0.032358
O  0.366306  0.234046  1.233532
O  0.360847  0.234717  -1.204504
O  1.731939  -1.402619  0.058744
H  -1.055877  0.086260  -0.860456
H  2.571790  -1.429227  -0.417872
N  -2.102337  -0.027223  -0.536630
C  -2.474565  1.171390  0.251985
C  -2.207681  -1.296411  0.222657
H  -2.672128  -0.079569  -1.379400
H  -1.781340  1.236064  1.091205
H  -2.361047  2.053407  -0.378715
H  -3.505901  1.083264  0.599704
H  -1.530351  -1.223883  1.074187
H  -3.237265  -1.449398  0.552488
H  -1.888721  -2.116121  -0.421518
