17
-835.302995193
S  -1.290263  -0.146303  0.010689
O  -2.448488  -1.022186  -0.008986
O  -0.449001  -0.176752  1.232021
O  -0.437245  -0.210889  -1.211241
O  -1.878043  1.382761  0.034385
H  1.188612  -0.090880  -0.767470
H  -2.734528  1.365297  -0.412208
N  1.900411  -0.014290  0.005511
C  2.541004  1.314126  -0.016377
C  2.820765  -1.165565  -0.003308
H  1.222003  -0.078275  0.802264
H  3.140766  1.413926  -0.922392
H  1.757311  2.072077  -0.007026
H  3.176064  1.428139  0.863588
H  3.430019  -1.137479  -0.908085
H  3.464106  -1.126174  0.877205
H  2.228579  -2.080591  0.013201
