17
-835.265553315
S  1.297000  -0.091140  0.063665
O  1.495908  -1.410455  -0.466753
O  0.625287  0.189498  1.305036
O  2.749755  0.586451  0.108886
O  0.546563  0.804481  -1.036967
H  2.725857  1.358112  0.694249
H  0.723111  0.444428  -1.918890
N  -2.551479  -0.018365  0.612996
C  -2.963973  1.072605  -0.248926
C  -2.339439  -1.257640  -0.109439
H  -1.706613  0.233230  1.113658
H  -3.948728  0.849781  -0.675397
H  -3.054732  1.992389  0.335293
H  -2.268355  1.261291  -1.087722
H  -3.295565  -1.624627  -0.499710
H  -1.648209  -1.160153  -0.968541
H  -1.938044  -2.017253  0.566014
