17
-835.266066492
S  1.490683  -0.105213  -0.124210
O  0.828650  -0.333962  -1.379773
O  2.846596  -0.490163  0.155303
O  1.336956  1.469943  0.160554
O  0.605299  -0.739704  1.050007
H  1.977012  1.733321  0.838143
H  -0.327133  -0.754377  0.775619
N  -3.273426  0.147576  -0.081363
C  -2.692976  -1.171765  0.075833
C  -2.307359  1.216570  0.110072
H  -3.699973  0.228301  -0.996976
H  -2.405484  -1.318057  1.126399
H  -3.433997  -1.941334  -0.153226
H  -1.814231  -1.353660  -0.573853
H  -1.959307  1.208713  1.150397
H  -1.427014  1.145548  -0.551909
H  -2.784812  2.184177  -0.061853
