17
-835.267389660
S  -1.369674  -0.111991  0.076199
O  -2.790452  -0.101971  -0.131236
O  -0.702273  -0.933470  1.050862
O  -0.720867  -0.376059  -1.362052
O  -0.878906  1.387425  0.390201
H  0.211862  -0.634886  -1.260516
H  -1.458221  2.017302  -0.063516
N  2.373916  0.046778  0.582179
C  2.556006  -1.194279  -0.129858
C  2.494239  1.227195  -0.247380
H  1.509726  0.043255  1.110013
H  3.592169  -1.282495  -0.474227
H  2.335271  -2.039693  0.524319
H  1.926879  -1.301498  -1.044641
H  3.516990  1.303176  -0.632578
H  1.811642  1.234790  -1.120071
H  2.289569  2.119570  0.348004
