17
-835.263848389
S  -1.286125  -0.105223  0.000982
O  -0.678554  -0.405049  1.267939
O  -0.847593  -0.644270  -1.256897
O  -2.847968  -0.432580  0.182747
O  -1.306750  1.488615  -0.196152
H  -3.262912  -0.500357  -0.689981
H  -1.309078  1.917093  0.672595
N  3.295648  0.073314  0.008147
C  2.362702  1.186806  -0.003827
C  2.627201  -1.217968  0.073583
H  3.883597  0.112583  -0.816718
H  1.822460  1.208701  0.949359
H  2.910863  2.128445  -0.099919
H  1.614796  1.132955  -0.815013
H  2.090351  -1.298253  1.024215
H  1.894277  -1.379373  -0.735320
H  3.371607  -2.018192  0.038423
