17
-835.266181536
S  -1.460683  0.110963  -0.115149
O  -0.712881  0.445633  -1.296400
O  -2.838039  0.462660  0.094405
O  -1.306519  -1.481425  0.050322
O  -0.673851  0.653350  1.169680
H  -1.988637  -1.804393  0.657366
H  0.280922  0.667923  0.984444
N  3.214654  -0.126114  -0.165787
C  2.283573  -1.216761  0.052751
C  2.609776  1.177236  0.006368
H  4.023624  -0.223183  0.436216
H  1.497237  -1.182127  -0.707927
H  2.798910  -2.175083  -0.046139
H  1.799592  -1.195707  1.049870
H  1.817636  1.312836  -0.738333
H  2.179175  1.337316  1.019909
H  3.350117  1.965203  -0.151275
