17
-835.302995174
S  1.290338  0.146458  0.010780
O  2.449283  1.021364  -0.009063
O  0.449380  0.177302  1.232211
O  0.437142  0.212013  -1.211034
O  1.876685  -1.383174  0.034251
H  -1.188240  0.091550  -0.767109
H  2.731877  -1.367074  -0.414872
N  -1.900306  0.014501  0.005698
C  -2.539953  -1.314363  -0.016449
C  -2.821498  1.165123  -0.003443
H  -1.222321  0.078862  0.802684
H  -3.138700  -1.414826  -0.923058
H  -1.755736  -2.071760  -0.006094
H  -3.175850  -1.428595  0.862888
H  -3.430484  1.136510  -0.908387
H  -3.465050  1.125329  0.876894
H  -2.229976  2.080576  0.013127
