17
-835.301325369
S  1.210179  -0.152723  -0.037852
O  0.366441  -0.234234  -1.233577
O  2.404250  -0.976415  0.032905
O  1.732668  1.402304  -0.058946
O  0.360605  -0.234029  1.204312
H  2.573113  1.428290  0.416672
H  -1.055991  -0.086399  0.860390
N  -2.102495  0.027256  0.536586
C  -2.475247  -1.171187  -0.251942
C  -2.207436  1.296548  -0.222612
H  -2.672277  0.079737  1.379341
H  -1.781813  -1.236316  -1.090916
H  -2.362626  -2.053227  0.378866
H  -3.506351  -1.082384  -0.600225
H  -1.530930  1.223422  -1.074741
H  -3.237211  1.450568  -0.551323
H  -1.886927  2.115921  0.421234
