17
-835.302995196
S  1.290302  0.146216  0.010739
O  0.449236  0.176370  1.232249
O  2.448551  1.022033  -0.008901
O  1.877905  -1.382880  0.033898
O  0.437049  0.211314  -1.211047
H  2.734058  -1.365538  -0.413330
H  -1.188115  0.090550  -0.766921
N  -1.900358  0.014127  0.005773
C  -2.541654  -1.313906  -0.016463
C  -2.820159  1.165883  -0.003454
H  -1.222279  0.077906  0.802777
H  -3.140715  -1.413463  -0.922966
H  -1.758434  -2.072336  -0.006418
H  -3.177505  -1.427516  0.862990
H  -3.429108  1.137985  -0.908439
H  -3.463771  1.126916  0.876877
H  -2.227495  2.080600  0.013111
