17
-835.298400214
S  -1.169025  -0.083822  -0.036305
O  -0.438129  0.384227  -1.227943
O  -1.683754  -1.437135  -0.064043
O  -0.360376  0.238898  1.199126
O  -2.492337  0.847764  0.101085
H  1.063054  0.124781  0.868961
H  -2.220406  1.772565  0.039383
N  2.105453  -0.001661  0.534304
C  2.487810  1.192032  -0.255572
C  2.177993  -1.269735  -0.232977
H  2.684411  -0.070963  1.369539
H  1.765491  1.285726  -1.067519
H  2.429150  2.071080  0.386727
H  3.501621  1.074484  -0.643660
H  1.526293  -1.168457  -1.101590
H  3.207773  -1.459523  -0.541848
H  1.810781  -2.080727  0.396258
