17
-835.302995160
S  1.290327  0.146593  0.010778
O  0.449555  0.177664  1.232353
O  2.449314  1.021436  -0.009445
O  1.876583  -1.383050  0.034373
O  0.436939  0.211999  -1.210936
H  2.731677  -1.367113  -0.414939
H  -1.187929  0.092410  -0.766558
N  -1.900324  0.014795  0.005941
C  -2.538653  -1.314719  -0.016555
C  -2.822654  1.164472  -0.003551
H  -1.222734  0.079595  0.803188
H  -3.137456  -1.415450  -0.923097
H  -1.753655  -2.071314  -0.006629
H  -3.174264  -1.429914  0.862863
H  -3.431046  1.135389  -0.908879
H  -3.466728  1.123883  0.876370
H  -2.232110  2.080547  0.013512
