17
-835.301325341
S  1.210060  -0.152576  -0.037799
O  0.365671  -0.233231  -1.233195
O  2.403426  -0.977334  0.032191
O  1.733880  1.401872  -0.058970
O  0.360964  -0.233349  1.204695
H  2.574756  1.426995  0.415933
H  -1.055763  -0.085996  0.859967
N  -2.102298  0.027165  0.536495
C  -2.474754  -1.171436  -0.251959
C  -2.208079  1.296466  -0.222565
H  -2.671781  0.079320  1.379473
H  -1.781281  -1.236484  -1.090884
H  -2.361982  -2.053389  0.378927
H  -3.505867  -1.082865  -0.600279
H  -1.532307  1.223422  -1.075273
H  -3.238204  1.450399  -0.550189
H  -1.886971  2.115812  0.421012
