17
-835.265640960
S  -1.204400  0.112003  -0.064803
O  -0.788821  0.093808  -1.439715
O  -0.875201  1.158202  0.865636
O  -2.796396  -0.073652  -0.084549
O  -0.721925  -1.251236  0.635697
H  -3.161167  0.191204  0.773049
H  -0.545861  -1.916619  -0.046341
N  2.446559  0.036489  0.596732
C  2.512591  -1.197161  -0.161227
C  2.540268  1.223564  -0.236874
H  1.601101  0.067932  1.154331
H  3.506747  -1.296925  -0.610936
H  2.366147  -2.050526  0.507716
H  1.776184  -1.255562  -0.986136
H  3.537218  1.270203  -0.689451
H  1.796142  1.252331  -1.051504
H  2.409566  2.115097  0.381057
