17
-835.302995196
S  -1.290275  -0.146294  0.010680
O  -0.448987  -0.176723  1.232017
O  -2.448494  -1.022175  -0.008968
O  -1.877970  1.382826  0.034485
O  -0.437239  -0.210915  -1.211239
H  -2.734030  1.365609  -0.412932
H  1.188514  -0.090838  -0.767459
N  1.900357  -0.014258  0.005521
C  2.541139  1.314070  -0.016405
C  2.820567  -1.165648  -0.003296
H  1.221965  -0.078175  0.802319
H  3.140383  1.413982  -0.922751
H  1.757568  2.072133  -0.006406
H  3.176762  1.427755  0.863202
H  3.429766  -1.137706  -0.908122
H  3.463996  -1.126283  0.877153
H  2.228270  -2.080601  0.013308
