17
-835.302995159
S  -1.290255  -0.146166  0.010623
O  -2.448273  -1.022334  -0.008780
O  -0.449005  -0.176141  1.232057
O  -0.437019  -0.210891  -1.211114
O  -1.878597  1.382657  0.033663
H  1.188510  -0.090371  -0.767263
H  -2.736906  1.363840  -0.409342
N  1.900469  -0.014059  0.005642
C  2.541983  1.313883  -0.016418
C  2.820081  -1.165951  -0.003274
H  1.222075  -0.077672  0.802459
H  3.141533  1.413277  -0.922620
H  1.758866  2.072425  -0.006826
H  3.177410  1.427458  0.863344
H  3.428323  -1.138986  -0.908768
H  3.464435  -1.126255  0.876481
H  2.227311  -2.080573  0.014616
