17
-835.266066439
S  -1.490181  -0.105519  0.123908
O  -2.846576  -0.488483  -0.155925
O  -0.826890  -0.340490  1.377643
O  -0.606456  -0.734866  -1.054334
O  -1.336038  1.470905  -0.153546
H  0.326347  -0.751063  -0.781297
H  -1.976540  1.737758  -0.829348
N  3.272813  0.146177  0.081569
C  2.689937  -1.172193  -0.075300
C  2.308751  1.216888  -0.110482
H  3.699183  0.226397  0.997311
H  2.402984  -1.318482  -1.126041
H  3.429405  -1.943027  0.154545
H  1.810400  -1.351974  0.573779
H  1.961284  1.209616  -1.151028
H  1.427845  1.147498  0.550910
H  2.787847  2.183650  0.061648
