17
-835.302995109
S  1.290289  0.146396  0.010513
O  0.448125  0.176836  1.231431
O  2.448728  1.021964  -0.007909
O  1.877860  -1.382744  0.034393
O  0.438027  0.211323  -1.211808
H  2.736099  -1.364607  -0.408767
H  -1.189824  0.091281  -0.768980
N  -1.900509  0.014469  0.004795
C  -2.540303  -1.314351  -0.016140
C  -2.821571  1.165110  -0.002859
H  -1.220798  0.078754  0.800802
H  -3.141736  -1.414439  -0.921018
H  -1.756123  -2.071820  -0.008331
H  -3.173592  -1.428930  0.865036
H  -3.431541  1.137095  -0.907165
H  -3.464211  1.124907  0.878130
H  -2.230022  2.080549  0.013656
