17
-835.266066495
S  1.490596  0.105369  0.124114
O  2.846337  0.490633  -0.155798
O  0.828447  0.335161  1.379423
O  0.604907  0.738201  -1.050787
O  1.337596  -1.470163  -0.158958
H  -0.327507  0.752840  -0.776338
H  1.977813  -1.733963  -0.836230
N  -3.273359  -0.147556  0.081267
C  -2.692785  1.171775  -0.075653
C  -2.307308  -1.216572  -0.110117
H  -3.700053  -0.228371  0.996805
H  -2.405236  1.318239  -1.126181
H  -3.433771  1.941349  0.153488
H  -1.814053  1.353476  0.574085
H  -1.959013  -1.208571  -1.150363
H  -1.427104  -1.145701  0.552079
H  -2.784834  -2.184190  0.061541
