17
-835.302995177
S  -1.290287  -0.146268  0.010706
O  -0.449444  -0.176803  1.232278
O  -2.448887  -1.021666  -0.009161
O  -1.877588  1.383008  0.033656
O  -0.436863  -0.211493  -1.210941
H  -2.735068  1.365105  -0.410997
H  1.187844  -0.090768  -0.766384
N  1.900441  -0.014178  0.006053
C  2.541402  1.314056  -0.016539
C  2.820449  -1.165730  -0.003526
H  1.222812  -0.077990  0.803320
H  3.140407  1.413510  -0.923086
H  1.757951  2.072243  -0.006674
H  3.177248  1.428043  0.862867
H  3.428698  -1.137978  -0.908989
H  3.464773  -1.126396  0.876267
H  2.227988  -2.080564  0.013734
