17
-835.302995193
S  -1.290313  0.146352  -0.010665
O  -0.449019  0.177130  -1.231984
O  -2.448817  1.021830  0.009017
O  -1.877529  -1.382971  -0.034601
O  -0.437334  0.211143  1.211281
H  -2.733683  -1.366022  0.412651
H  1.188597  0.091060  0.767548
N  1.900365  0.014318  -0.005496
C  2.540856  -1.314151  0.016400
C  2.820875  1.165483  0.003268
H  1.221940  0.078391  -0.802244
H  3.140659  -1.413949  0.922388
H  1.757111  -2.072048  0.007124
H  3.175871  -1.428256  -0.863590
H  3.429791  1.137643  0.908286
H  3.464552  1.125694  -0.876980
H  2.228821  2.080585  -0.013778
