17
-835.302995174
S  -1.290387  0.146441  -0.010848
O  -2.449725  1.020816  0.008539
O  -0.449494  0.176898  -1.232380
O  -0.437124  0.213158  1.210867
O  -1.876017  -1.383453  -0.033265
H  1.187890  0.091486  0.766602
H  -2.731554  -1.367352  0.415188
N  1.900272  0.014440  -0.005928
C  2.540169  -1.314285  0.016489
C  2.821252  1.165229  0.003605
H  1.222585  0.078748  -0.803159
H  3.138686  -1.414544  0.923273
H  1.756128  -2.071863  0.006001
H  3.176323  -1.428493  -0.862667
H  3.429945  1.136631  0.908743
H  3.465079  1.125662  -0.876545
H  2.229567  2.080576  -0.013036
