17
-835.265624311
S  -1.220089  -0.114059  0.018391
O  -0.743661  -0.571784  1.293533
O  -0.596068  -0.434637  -1.237969
O  -2.762199  -0.548200  -0.054366
O  -1.326649  1.486675  0.047064
H  -3.065092  -0.503564  -0.973644
H  -1.446891  1.783296  0.961465
N  2.575631  -0.000710  -0.607521
C  2.383528  1.243898  0.112690
C  2.894040  -1.112526  0.272068
H  1.741738  -0.217776  -1.141834
H  3.336922  1.569199  0.544681
H  2.045039  2.022246  -0.576661
H  1.655389  1.168548  0.942750
H  3.865278  -0.934114  0.747619
H  2.148829  -1.269632  1.071893
H  2.974004  -2.032952  -0.312540
