17
-835.301325359
S  1.210116  -0.152606  0.037842
O  0.366097  -0.233747  1.233424
O  2.403708  -0.977029  -0.032807
O  0.360727  -0.233292  -1.204504
O  1.733479  1.402077  0.059219
H  -1.055873  -0.086008  -0.860347
H  2.573783  1.427754  -0.416668
N  -2.102438  0.027167  -0.536587
C  -2.208085  1.296414  0.222589
C  -2.474661  -1.171453  0.251960
H  -2.672219  0.079323  -1.379367
H  -1.531281  1.223799  1.074521
H  -1.888428  2.116028  -0.421377
H  -3.237877  1.449649  0.551620
H  -1.781819  -1.235720  1.091488
H  -3.506148  -1.083590  0.599326
H  -2.360549  -2.053548  -0.378510
