17
-835.302995205
S  1.290300  -0.146126  -0.010651
O  2.448173  -1.022493  0.008737
O  0.448774  -0.176251  -1.231838
O  0.437486  -0.210434  1.211436
O  1.878655  1.382685  -0.034567
H  -1.188825  -0.090071  0.767812
H  2.735132  1.364955  0.412032
N  -1.900471  -0.013996  -0.005359
C  -2.542476  1.313717  0.016383
C  -2.819640  -1.166239  0.003149
H  -1.221746  -0.077412  -0.801949
H  -3.142732  1.412806  0.922149
H  -1.759633  2.072549  0.007407
H  -3.177306  1.427148  -0.863829
H  -3.428997  -1.138980  0.907886
H  -3.462933  -1.127323  -0.877415
H  -2.226473  -2.080628  -0.013493
