17
-835.301325034
S  1.210040  -0.153011  -0.037404
O  0.365894  -0.237573  -1.232723
O  2.404646  -0.975835  0.034377
O  1.731852  1.402146  -0.061356
O  0.360910  -0.232024  1.205121
H  2.576555  1.427658  0.406641
H  -1.056223  -0.087083  0.860660
N  -2.102426  0.027376  0.536521
C  -2.476664  -1.170377  -0.252375
C  -2.205589  1.296975  -0.222458
H  -2.672519  0.080541  1.379004
H  -1.783326  -1.236131  -1.091379
H  -2.364922  -2.052730  0.378166
H  -3.507733  -1.080285  -0.600409
H  -1.529143  1.223130  -1.074554
H  -3.235130  1.452336  -0.551275
H  -1.884119  2.115804  0.421596
