17
-835.301325367
S  -1.210105  0.152605  -0.037828
O  -2.403614  0.977124  0.032697
O  -0.365983  0.233642  -1.233383
O  -0.360717  0.233260  1.204532
O  -1.733582  -1.401962  -0.059140
H  1.055775  0.086063  0.860200
H  -2.574174  -1.427484  0.416241
N  2.102369  -0.027175  0.536560
C  2.474777  1.171416  -0.251957
C  2.207960  -1.296444  -0.222584
H  2.672059  -0.079403  1.379393
H  1.781710  1.235983  -1.091277
H  2.361186  2.053457  0.378677
H  3.506141  1.083231  -0.599611
H  1.531398  -1.223712  -1.074694
H  3.237808  -1.449954  -0.551321
H  1.887938  -2.115969  0.421314
