17
-835.302995166
S  -1.290232  -0.146207  0.010647
O  -2.448198  -1.022460  -0.009121
O  -0.449137  -0.176333  1.232113
O  -0.436906  -0.210632  -1.211074
O  -1.878753  1.382582  0.033869
H  1.188294  -0.090602  -0.766996
H  -2.736920  1.363695  -0.409455
N  1.900515  -0.014131  0.005751
C  2.541647  1.314007  -0.016482
C  2.820418  -1.165794  -0.003323
H  1.222487  -0.077868  0.802772
H  3.141036  1.413470  -0.922777
H  1.758293  2.072307  -0.006862
H  3.177169  1.427851  0.863183
H  3.429601  -1.137802  -0.908156
H  3.463851  -1.126784  0.877143
H  2.227847  -2.080571  0.013077
