17
-835.267400241
S  1.371892  0.111926  0.077387
O  0.718669  0.897462  1.090688
O  2.788121  0.119824  -0.158967
O  0.898276  -1.400152  0.353918
O  0.691303  0.416393  -1.337989
H  1.471545  -2.011031  -0.132320
H  -0.241278  0.662319  -1.207611
N  -2.366684  -0.047174  0.579753
C  -2.576258  1.188807  -0.134031
C  -2.483660  -1.233774  -0.241487
H  -1.499512  -0.030832  1.102395
H  -3.620157  1.264619  -0.457542
H  -2.352757  2.039348  0.512694
H  -1.968943  1.299116  -1.063179
H  -3.510099  -1.323158  -0.613827
H  -1.811487  -1.239326  -1.122074
H  -2.262228  -2.120067  0.356911
