17
-835.267113214
S  -1.384897  -0.146510  -0.120027
O  -0.519661  -0.903447  -0.981874
O  -2.809642  -0.311795  -0.054079
O  -0.771295  -0.342255  1.359372
O  -1.137777  1.415364  -0.365608
H  -1.422397  -0.064190  2.020502
H  -0.204123  1.557214  -0.600187
N  2.432609  0.002694  0.600839
C  2.965785  -1.031137  -0.271488
C  2.226486  1.260285  -0.080105
H  1.569986  -0.315315  1.026935
H  3.966262  -0.739912  -0.609858
H  3.060993  -1.965793  0.286281
H  2.340191  -1.217582  -1.160484
H  3.189804  1.687723  -0.378459
H  1.633636  1.166942  -1.018152
H  1.749124  1.978391  0.595040
