17
-835.302994249
S  1.289841  0.144225  0.009703
O  0.444809  0.171749  1.228959
O  2.439165  1.031901  -0.009451
O  1.892920  -1.378262  0.042260
O  0.439758  0.195516  -1.214467
H  2.750075  -1.354316  -0.402760
H  -1.194677  0.081671  -0.775562
N  -1.901144  0.011342  0.001533
C  -2.556031  -1.309985  -0.015532
C  -2.809364  1.172354  -0.000548
H  -1.215980  0.069910  0.794140
H  -3.166626  -1.402071  -0.915146
H  -1.780896  -2.076762  -0.015638
H  -3.182937  -1.418362  0.870961
H  -3.424821  1.151741  -0.901331
H  -3.447183  1.138835  0.884201
H  -2.207240  2.080922  0.013221
