17
-835.302994329
S  1.290128  -0.142058  -0.010752
O  2.437393  -1.032361  0.008944
O  0.448791  -0.162222  -1.232277
O  0.436066  -0.197334  1.211007
O  1.896688  1.379245  -0.033776
H  -1.187631  -0.070382  0.766900
H  2.752356  1.350987  0.413861
N  -1.901384  -0.007150  -0.005762
C  -2.575446  1.304285  0.016874
C  -2.792523  -1.181478  0.002917
H  -1.222121  -0.057994  -0.802726
H  -3.177480  1.388180  0.923006
H  -1.811973  2.082539  0.007706
H  -3.213690  1.402415  -0.862721
H  -3.401757  -1.169338  0.908052
H  -3.436901  -1.158028  -0.877397
H  -2.176845  -2.080865  -0.014242
