17
-835.301325356
S  1.210084  -0.152666  -0.037800
O  0.366048  -0.234316  -1.233356
O  2.403854  -0.976784  0.033004
O  1.733069  1.402123  -0.059582
O  0.360716  -0.233199  1.204557
H  2.573285  1.428172  0.416446
H  -1.055812  -0.086085  0.860320
N  -2.102323  0.027179  0.536566
C  -2.474808  -1.171326  -0.251944
C  -2.207645  1.296497  -0.222604
H  -2.672036  0.079511  1.379384
H  -1.781747  -1.236011  -1.091261
H  -2.361319  -2.053414  0.378651
H  -3.506155  -1.083075  -0.599642
H  -1.530465  1.223907  -1.074246
H  -3.237288  1.449728  -0.552113
H  -1.888323  2.116049  0.421596
