17
-835.302995197
S  -1.290275  -0.146140  0.010663
O  -2.447773  -1.022909  -0.009014
O  -0.448907  -0.176064  1.231994
O  -0.437223  -0.210058  -1.211292
O  -1.879202  1.382467  0.034607
H  1.188574  -0.090196  -0.767468
H  -2.735321  1.364513  -0.412693
N  1.900474  -0.014059  0.005518
C  2.542267  1.313790  -0.016441
C  2.819833  -1.166112  -0.003253
H  1.222074  -0.077489  0.802301
H  3.141683  1.413184  -0.922726
H  1.759286  2.072461  -0.006583
H  3.177860  1.427056  0.863238
H  3.429229  -1.138500  -0.907949
H  3.463083  -1.127315  0.877349
H  2.226850  -2.080622  0.013116
