17
-835.301325371
S  -1.210132  0.152599  -0.037817
O  -0.366128  0.233820  -1.233427
O  -2.403529  0.977246  0.032999
O  -1.733795  -1.401928  -0.059477
O  -0.360706  0.232899  1.204514
H  -2.573882  -1.427666  0.416788
H  1.055991  0.085945  0.860303
N  2.102519  -0.027183  0.536586
C  2.474740  1.171461  -0.251958
C  2.208090  -1.296425  -0.222599
H  2.672300  -0.079353  1.379359
H  1.781056  1.236436  -1.090737
H  2.362025  2.053403  0.378972
H  3.505790  1.082952  -0.600464
H  1.531617  -1.223601  -1.074774
H  3.237961  -1.449996  -0.551220
H  1.887905  -2.115949  0.421220
