17
-835.263606831
S  1.363980  0.048689  -0.135874
O  0.904682  -0.940414  -1.071916
O  1.282792  1.466710  -0.352314
O  0.641446  -0.302809  1.254535
O  2.903324  -0.249831  0.211038
H  0.666097  0.474552  1.832006
H  3.075183  -1.197667  0.108745
N  -3.328205  0.047613  -0.029408
C  -2.615564  -1.215793  0.084950
C  -2.441453  1.197865  -0.000321
H  -3.869843  0.057731  -0.886134
H  -2.146490  -1.277702  1.072883
H  -3.323015  -2.045142  -0.000759
H  -1.819561  -1.348211  -0.667014
H  -1.972938  1.265637  0.988533
H  -1.634589  1.162143  -0.752596
H  -3.016937  2.114670  -0.154344
