17
-835.302995071
S  -1.290338  -0.147217  0.010851
O  -2.452027  -1.018394  -0.008975
O  -0.449807  -0.180022  1.232576
O  -0.436928  -0.215893  -1.210648
O  -1.871896  1.384398  0.033298
H  1.187587  -0.094940  -0.766426
H  -2.727493  1.370565  -0.415124
N  1.899892  -0.015639  0.006031
C  2.534008  1.315906  -0.016423
C  2.825764  -1.162429  -0.003786
H  1.222564  -0.082244  0.803362
H  3.132369  1.418610  -0.923038
H  1.746536  2.069944  -0.006379
H  3.169325  1.433107  0.862942
H  3.433315  -1.131824  -0.909632
H  3.470471  -1.119492  0.875563
H  2.238124  -2.080354  0.014141
