17
-835.301325374
S  -1.210120  -0.152602  0.037826
O  -2.403531  -0.977240  -0.032798
O  -0.366115  -0.233594  1.233447
O  -0.360645  -0.233204  -1.204460
O  -1.733754  1.401938  0.059162
H  1.055947  -0.086056  -0.860240
H  -2.574058  1.427535  -0.416718
N  2.102489  0.027176  -0.536571
C  2.474803  -1.171397  0.251961
C  2.207980  1.296455  0.222599
H  2.672130  0.079427  -1.379437
H  1.781182  -1.236366  1.090801
H  2.362024  -2.053394  -0.378885
H  3.505875  -1.082897  0.600400
H  1.531372  1.223631  1.074669
H  3.237816  1.450007  0.551318
H  1.887870  2.115950  -0.421296
