17
-835.265553304
S  1.296957  0.090927  -0.063737
O  1.495021  1.410730  0.465792
O  0.625813  -0.190962  -1.305131
O  2.750098  -0.585918  -0.107995
O  0.546570  -0.804242  1.037274
H  2.726925  -1.357657  -0.693283
H  0.723361  -0.443984  1.919066
N  -2.551165  0.018377  -0.613036
C  -2.965255  -1.071928  0.248960
C  -2.338430  1.257642  0.109250
H  -1.706174  -0.234147  -1.113024
H  -3.950086  -0.848034  0.674697
H  -3.056495  -1.991822  -0.335009
H  -2.270414  -1.260977  1.088313
H  -3.294463  1.625630  0.498799
H  -1.647851  1.159664  0.968811
H  -1.935857  2.016701  -0.566122
