17
-835.266181061
S  -1.460827  0.112365  -0.113738
O  -2.837854  0.460678  0.103495
O  -0.715252  0.464775  -1.291227
O  -0.671753  0.635481  1.177693
O  -1.306062  -1.482323  0.027613
H  0.282708  0.652870  0.991129
H  -1.986881  -1.814584  0.631115
N  3.213653  -0.124242  -0.169083
C  2.286591  -1.217046  0.055279
C  2.606635  1.177734  0.006522
H  4.026367  -0.219298  0.428182
H  1.495203  -1.184273  -0.700279
H  2.803413  -2.174189  -0.047245
H  1.809147  -1.197401  1.055632
H  1.810612  1.311918  -0.734258
H  2.180616  1.336434  1.022185
H  3.344482  1.967354  -0.154481
