17
-835.301325354
S  -1.210123  -0.152606  0.037879
O  -0.365874  -0.233199  1.233349
O  -2.403629  -0.977157  -0.032232
O  -1.733556  1.402035  0.058825
O  -0.360884  -0.233728  -1.204549
H  -2.573657  1.427636  -0.417418
H  1.055686  -0.086125  -0.860072
N  2.102242  0.027163  -0.536508
C  2.474841  -1.171428  0.251922
C  2.208039  1.296443  0.222543
H  2.671733  0.079340  -1.379492
H  1.781756  -1.236209  1.091205
H  2.361493  -2.053435  -0.378803
H  3.506159  -1.083042  0.599664
H  1.532292  1.223466  1.075277
H  3.238152  1.450402  0.550205
H  1.886924  2.115826  -0.421008
