17
-835.267400260
S  -1.371926  0.112063  -0.077452
O  -0.718165  0.896282  -1.091425
O  -2.788105  0.121472  0.159176
O  -0.899801  -1.400658  -0.353032
O  -0.690781  0.416870  1.337591
H  -1.473524  -2.010597  0.133851
H  0.242006  0.661851  1.206918
N  2.367060  -0.047269  -0.579736
C  2.577271  1.188510  0.134198
C  2.482964  -1.234055  0.241392
H  1.500081  -0.030308  -1.102680
H  3.621070  1.263448  0.458236
H  2.354798  2.039260  -0.512619
H  1.969563  1.299376  1.063019
H  3.509219  -1.324203  0.614061
H  1.810500  -1.239301  1.121762
H  2.261109  -2.120115  -0.357195
