17
-835.265504567
S  1.212644  -0.101662  -0.023521
O  0.592089  0.082885  -1.308154
O  0.682491  -0.944639  1.011690
O  2.720306  -0.550773  -0.337346
O  1.430585  1.336409  0.653415
H  3.112792  -0.935223  0.460716
H  1.497390  2.010237  -0.039468
N  -2.604887  0.055284  -0.591781
C  -2.897701  -1.128413  0.199560
C  -2.352108  1.225517  0.228518
H  -1.801541  -0.120522  -1.184973
H  -3.839945  -0.980141  0.739349
H  -3.025934  -1.989774  -0.461651
H  -2.114990  -1.368572  0.939972
H  -3.271343  1.510351  0.752973
H  -1.569331  1.073801  0.994903
H  -2.060109  2.065769  -0.408318
