17
-835.265420852
S  -1.253644  0.106140  -0.042668
O  -1.057180  1.302322  0.727841
O  -0.531000  -0.204375  -1.247304
O  -1.079699  -1.111595  0.987145
O  -2.805052  -0.009942  -0.432476
H  -0.874166  -1.920709  0.495314
H  -3.339013  0.432910  0.243915
N  2.639010  -0.000991  -0.595770
C  2.743005  1.201030  0.214245
C  2.550555  -1.208155  0.202851
H  1.827532  0.065111  -1.199935
H  3.686912  1.184409  0.770709
H  2.753342  2.081148  -0.433947
H  1.921759  1.317700  0.943646
H  3.493224  -1.363957  0.739494
H  1.743225  -1.184542  0.959972
H  2.394498  -2.071912  -0.450313
