17
-835.263486265
S  -1.338967  -0.062514  -0.107850
O  -0.735388  0.762668  -1.117824
O  -1.269461  -1.497358  -0.087267
O  -0.793217  0.499540  1.294144
O  -2.901377  0.297923  -0.018598
H  -0.913040  -0.177965  1.975982
H  -3.032486  1.217433  -0.293769
N  3.294812  -0.086698  -0.143381
C  2.357461  -1.192165  -0.062475
C  2.658403  1.206667  0.043335
H  4.035767  -0.210047  0.537035
H  1.644927  -1.126267  -0.890752
H  2.891270  -2.141539  -0.157515
H  1.775055  -1.214573  0.877901
H  1.938853  1.374885  -0.763875
H  2.108695  1.297384  0.997694
H  3.411098  1.998608  -0.002231
