17
-835.302995187
S  -1.290305  0.146401  -0.010608
O  -2.449412  1.021077  0.009420
O  -0.449033  0.178237  -1.231933
O  -0.437355  0.211268  1.211350
O  -1.876509  -1.383289  -0.035101
H  1.188498  0.091168  0.767503
H  -2.732887  -1.367068  0.411749
N  1.900260  0.014326  -0.005525
C  2.540553  -1.314233  0.016411
C  2.820845  1.165427  0.003261
H  1.221874  0.078554  -0.802303
H  3.140174  -1.414184  0.922503
H  1.756694  -2.072012  0.006948
H  3.175712  -1.428391  -0.863471
H  3.430126  1.137248  0.908024
H  3.464151  1.125932  -0.877272
H  2.228791  2.080549  -0.013202
