17
-835.301325348
S  1.210139  0.152666  0.037906
O  0.366369  0.233476  1.233611
O  2.403772  0.977062  -0.032703
O  1.733502  -1.402022  0.058657
O  0.360598  0.233664  -1.204286
H  2.573862  -1.427378  -0.417144
H  -1.056067  0.086347  -0.860307
N  -2.102533  -0.027219  -0.536562
C  -2.475180  1.171300  0.251864
C  -2.207708  -1.296546  0.222683
H  -2.672247  -0.079682  -1.379362
H  -1.781321  1.236848  1.090457
H  -2.363243  2.053217  -0.379242
H  -3.506076  1.082323  0.600708
H  -1.531652  -1.223250  1.075127
H  -3.237679  -1.450661  0.550692
H  -1.886681  -2.115838  -0.420993
