17
-835.301325367
S  -1.210164  -0.152558  0.037832
O  -0.366130  -0.233351  1.233427
O  -2.403444  -0.977420  -0.032783
O  -1.734040  1.401907  0.059111
O  -0.360661  -0.232955  -1.204446
H  -2.574377  1.427234  -0.416731
H  1.056135  -0.085858  -0.860417
N  2.102667  0.027152  -0.536597
C  2.474527  -1.171570  0.251940
C  2.208369  1.296359  0.222655
H  2.672568  0.079282  -1.379292
H  1.780975  -1.236237  1.090860
H  2.361309  -2.053522  -0.378886
H  3.505674  -1.083502  0.600279
H  1.531458  1.223805  1.074508
H  3.238136  1.449454  0.551830
H  1.888908  2.116024  -0.421335
