17
-835.301325301
S  1.210179  0.152774  0.037760
O  0.366336  0.234909  1.233384
O  2.404762  0.975713  -0.032846
O  1.731976  -1.402475  0.058872
O  0.360775  0.234442  -1.204420
H  2.574351  -1.427882  -0.413349
H  -1.055910  0.086473  -0.860059
N  -2.102406  -0.027264  -0.536530
C  -2.475571  1.171000  0.252036
C  -2.207229  -1.296660  0.222525
H  -2.672014  -0.079813  -1.379393
H  -1.782147  1.236339  1.090995
H  -2.363346  2.053107  -0.378719
H  -3.506632  1.081758  0.600341
H  -1.531111  -1.223343  1.074930
H  -3.237093  -1.451068  0.550763
H  -1.886118  -2.115853  -0.421236
