17
-835.301325376
S  -1.210122  -0.152621  0.037841
O  -2.403710  -0.977023  -0.032725
O  -0.366154  -0.233627  1.233483
O  -0.360649  -0.233481  -1.204443
O  -1.733432  1.402051  0.059035
H  1.055914  -0.086092  -0.860337
H  -2.573691  1.427738  -0.416925
N  2.102457  0.027184  -0.536581
C  2.474764  -1.171404  0.251959
C  2.207905  1.296446  0.222603
H  2.672231  0.079432  -1.379358
H  1.781111  -1.236421  1.090765
H  2.362101  -2.053375  -0.378938
H  3.505810  -1.082844  0.600478
H  1.531425  1.223567  1.074773
H  3.237765  1.450107  0.551210
H  1.887628  2.115925  -0.421227
