17
-835.301325338
S  -1.210070  -0.152383  0.037808
O  -0.365961  -0.232056  1.233436
O  -2.401948  -0.979262  -0.032977
O  -1.736737  1.401045  0.059137
O  -0.360365  -0.231245  -1.204439
H  -2.577926  1.424557  -0.415291
H  1.056137  -0.085401  -0.860257
N  2.102827  0.027104  -0.536547
C  2.474385  -1.171749  0.251980
C  2.209234  1.296273  0.222596
H  2.672586  0.078910  -1.379359
H  1.780919  -1.236150  1.090983
H  2.360830  -2.053659  -0.378841
H  3.505603  -1.083977  0.600186
H  1.532456  1.224041  1.074582
H  3.239133  1.449022  0.551534
H  1.889959  2.116051  -0.421353
