17
-835.302995140
S  1.290303  0.146474  0.010828
O  0.449666  0.177075  1.232520
O  2.448753  1.022001  -0.009574
O  1.877303  -1.382882  0.034394
O  0.436762  0.211468  -1.210847
H  2.731460  -1.366923  -0.416697
H  -1.187562  0.091877  -0.766217
N  -1.900307  0.014613  0.006070
C  -2.539499  -1.314460  -0.016596
C  -2.821846  1.164922  -0.003671
H  -1.222951  0.079083  0.803477
H  -3.137969  -1.414855  -0.923391
H  -1.755029  -2.071589  -0.006259
H  -3.175584  -1.429146  0.862546
H  -3.430413  1.135922  -0.908882
H  -3.465792  1.125105  0.876377
H  -2.230654  2.080585  0.012951
