17
-835.301325373
S  -1.210102  -0.152659  0.037820
O  -0.365994  -0.234005  1.233356
O  -2.403821  -0.976877  -0.032772
O  -1.733202  1.402105  0.059336
O  -0.360759  -0.233418  -1.204553
H  -2.573442  1.428014  -0.416651
H  1.055859  -0.086216  -0.860261
N  2.102340  0.027187  -0.536571
C  2.474883  -1.171314  0.251967
C  2.207680  1.296495  0.222578
H  2.672028  0.079509  -1.379404
H  1.781430  -1.236303  1.090940
H  2.362081  -2.053351  -0.378818
H  3.506016  -1.082689  0.600207
H  1.531105  1.223622  1.074668
H  3.237499  1.450162  0.551311
H  1.887489  2.115951  -0.421324
