17
-835.266181544
S  -1.460615  -0.111097  0.115068
O  -2.837790  -0.462974  -0.095209
O  -0.713146  -0.446395  1.296317
O  -0.673233  -0.652304  -1.169907
O  -1.306753  1.481472  -0.049183
H  0.281453  -0.667050  -0.984288
H  -1.988687  1.804702  -0.656286
N  3.214389  0.126228  0.165919
C  2.283249  1.216750  -0.052874
C  2.609792  -1.177229  -0.006381
H  4.023565  0.223416  -0.435774
H  1.496682  1.182019  0.707563
H  2.798427  2.175136  0.046212
H  1.799567  1.195693  -1.050146
H  1.817520  -1.312997  0.738151
H  2.179481  -1.337419  -1.020018
H  3.350234  -1.965058  0.151461
