17
-835.301042095
S  1.208429  0.148415  -0.021934
O  2.377437  1.010895  0.028236
O  0.364583  0.228661  -1.223084
O  1.789751  -1.385765  0.010925
O  0.351556  0.179352  1.210137
H  2.723601  -1.334620  -0.229809
H  -1.069045  0.063013  0.853844
N  -2.113836  -0.033923  0.527369
C  -2.230973  -1.291992  -0.248523
C  -2.471116  1.179144  -0.245949
H  -2.685384  -0.091217  1.368659
H  -1.549840  -1.215230  -1.096625
H  -1.923103  -2.123219  0.386259
H  -3.261240  -1.429156  -0.583070
H  -1.774290  1.247697  -1.081900
H  -3.502174  1.106253  -0.597966
H  -2.350625  2.051256  0.397085
