17
-835.301325364
S  -1.210128  -0.152702  0.037773
O  -2.403916  -0.976763  -0.033183
O  -0.366156  -0.234565  1.233358
O  -0.360740  -0.233048  -1.204612
O  -1.733048  1.402116  0.059821
H  1.055787  -0.086218  -0.860249
H  -2.573282  1.428286  -0.416157
N  2.102345  0.027173  -0.536549
C  2.475083  -1.171241  0.251987
C  2.207585  1.296528  0.222557
H  2.671972  0.079577  -1.379418
H  1.781380  -1.236572  1.090727
H  2.362890  -2.053275  -0.378910
H  3.506060  -1.082247  0.600608
H  1.531486  1.223393  1.074993
H  3.237518  1.450599  0.550736
H  1.886692  2.115836  -0.421183
