17
-835.302995184
S  -1.290282  -0.146305  0.010696
O  -2.448846  -1.021716  -0.008873
O  -0.449018  -0.176978  1.232002
O  -0.437293  -0.211355  -1.211246
O  -1.877286  1.383032  0.034405
H  1.188372  -0.090834  -0.767400
H  -2.733264  1.366341  -0.413175
N  1.900259  -0.014242  0.005503
C  2.541079  1.314038  -0.016377
C  2.820455  -1.165678  -0.003307
H  1.221781  -0.078167  0.802263
H  3.140457  1.413921  -0.922640
H  1.757556  2.072167  -0.006518
H  3.176551  1.427771  0.863331
H  3.430191  -1.137286  -0.907757
H  3.463309  -1.126755  0.877573
H  2.228088  -2.080605  0.012475
