17
-835.266066455
S  1.488158  -0.106953  -0.122803
O  2.845111  -0.487638  0.157418
O  0.818515  -0.362653  -1.369104
O  0.608691  -0.713551  1.070396
O  1.338277  1.474426  0.127327
H  -0.325216  -0.733213  0.801461
H  1.981994  1.751955  0.795739
N  -3.269842  0.141100  -0.086546
C  -2.679678  -1.173571  0.075092
C  -2.314567  1.218039  0.113988
H  -3.688575  0.218686  -1.006039
H  -2.400054  -1.317761  1.128146
H  -3.412634  -1.949026  -0.160021
H  -1.794206  -1.347928  -0.567150
H  -1.976153  1.212807  1.157559
H  -1.427522  1.154870  -0.539809
H  -2.798548  2.181682  -0.061988
