17
-835.263870583
S  1.283440  0.107929  0.024504
O  0.808637  0.369120  1.355170
O  0.737892  0.704779  -1.163428
O  2.862620  0.397470  0.064662
O  1.247597  -1.476858  -0.233925
H  3.192230  0.492221  -0.841352
H  1.317314  -1.939640  0.614112
N  -3.277314  -0.072675  -0.100537
C  -2.619892  1.218632  0.033733
C  -2.342868  -1.183704  -0.067501
H  -3.968514  -0.184029  0.632513
H  -1.965837  1.381280  -0.828692
H  -3.370806  2.013461  0.042759
H  -1.998651  1.307702  0.941780
H  -1.675537  -1.119859  -0.933529
H  -1.713317  -1.205434  0.841475
H  -2.888136  -2.129497  -0.134586
