17
-835.301325374
S  1.210111  0.152606  0.037844
O  2.403538  0.977223  -0.032708
O  0.366104  0.233514  1.233470
O  0.360688  0.233272  -1.204497
O  1.733748  -1.401946  0.059115
H  -1.055901  0.086034  -0.860216
H  2.573832  -1.427606  -0.417157
N  -2.102460  -0.027191  -0.536571
C  -2.474775  1.171425  0.251932
C  -2.208010  -1.296434  0.222614
H  -2.672140  -0.079420  -1.379416
H  -1.781449  1.236194  1.091032
H  -2.361571  2.053427  -0.378832
H  -3.505999  1.083108  0.599964
H  -1.531275  -1.223713  1.074595
H  -3.237812  -1.449833  0.551525
H  -1.888160  -2.116001  -0.421322
