17
-835.301325291
S  -1.210146  -0.152643  0.037821
O  -2.403438  -0.977509  -0.032898
O  -0.366140  -0.233677  1.233372
O  -0.360740  -0.232883  -1.204557
O  -1.734074  1.401779  0.059297
H  1.056156  -0.086326  -0.860337
H  -2.574756  1.427048  -0.415934
N  2.102646  0.027233  -0.536537
C  2.475386  -1.171243  0.251975
C  2.207656  1.296556  0.222589
H  2.672540  0.079698  -1.379220
H  1.783252  -1.235244  1.092098
H  2.360501  -2.053485  -0.378167
H  3.507202  -1.083514  0.598394
H  1.531129  1.223505  1.074710
H  3.237443  1.450505  0.551320
H  1.887227  2.115916  -0.421324
