17
-835.301325266
S  1.210134  -0.152296  -0.037972
O  2.402814  -0.978165  0.031729
O  0.366106  -0.231109  -1.233689
O  0.360488  -0.233583  1.204155
O  1.735347  1.401691  -0.057289
H  -1.055740  -0.084989  0.859925
H  2.576751  1.425310  0.416749
N  -2.102569  0.027025  0.536501
C  -2.473680  -1.172069  -0.251773
C  -2.209955  1.296133  -0.222685
H  -2.672084  0.078609  1.379497
H  -1.780594  -1.236080  -1.091121
H  -2.359220  -2.053891  0.379009
H  -3.505116  -1.085031  -0.599535
H  -1.533431  1.224204  -1.074906
H  -3.240062  1.448293  -0.551230
H  -1.890903  2.116087  0.421165
