17
-835.302995191
S  -1.290300  0.146240  -0.010703
O  -2.448076  1.022704  0.009065
O  -0.449132  0.176237  -1.232097
O  -0.437127  0.210546  1.211173
O  -1.878779  -1.382509  -0.034335
H  1.188366  0.090840  0.766969
H  -2.734923  -1.364779  0.412902
N  1.900530  0.014250  -0.005746
C  2.541341  -1.314060  0.016503
C  2.820722  1.165674  0.003372
H  1.222485  0.078037  -0.802731
H  3.140281  -1.413873  0.923053
H  1.757792  -2.072146  0.006350
H  3.177217  -1.427826  -0.862907
H  3.429514  1.137765  0.908463
H  3.464487  1.126286  -0.876825
H  2.228400  2.080604  -0.013508
