17
-835.301325363
S  -1.210090  -0.152606  0.037833
O  -0.366002  -0.233533  1.233385
O  -2.403697  -0.976979  -0.032478
O  -1.733420  1.402015  0.058978
O  -0.360813  -0.233627  -1.204513
H  -2.573595  1.427667  -0.417146
H  1.056053  -0.085990  -0.860402
N  2.102497  0.027222  -0.536614
C  2.474701  -1.171434  0.251969
C  2.207832  1.296425  0.222639
H  2.672409  0.079487  -1.379289
H  1.780801  -1.236505  1.090561
H  2.362316  -2.053341  -0.379053
H  3.505637  -1.082719  0.600751
H  1.531054  1.223623  1.074570
H  3.237599  1.449967  0.551620
H  1.887937  2.115997  -0.421262
