17
-835.301325364
S  -1.210144  -0.152598  0.037730
O  -0.365998  -0.234104  1.233197
O  -2.403587  -0.977200  -0.033032
O  -1.733621  1.401945  0.059844
O  -0.360727  -0.232793  -1.204644
H  -2.573931  1.427858  -0.416006
H  1.055951  -0.086037  -0.860390
N  2.102506  0.027143  -0.536573
C  2.474780  -1.171387  0.252121
C  2.207897  1.296465  0.222509
H  2.672305  0.079321  -1.379339
H  1.781134  -1.236279  1.090949
H  2.362048  -2.053426  -0.378672
H  3.505847  -1.082832  0.600575
H  1.531144  1.223765  1.074502
H  3.237657  1.449990  0.551513
H  1.888003  2.115954  -0.421503
