17
-835.301325313
S  -1.210174  0.152758  -0.037766
O  -2.404077  0.976626  0.033251
O  -0.366254  0.234680  -1.233333
O  -0.360748  0.233035  1.204565
O  -1.732933  -1.402183  -0.059850
H  1.056221  0.086153  0.860577
H  -2.573082  -1.428489  0.416264
N  2.102550  -0.027210  0.536549
C  2.475111  1.171259  -0.251976
C  2.207550  -1.296507  -0.222628
H  2.672342  -0.079641  1.379321
H  1.782298  1.235706  -1.091525
H  2.361104  2.053413  0.378452
H  3.506609  1.083189  -0.599244
H  1.530087  -1.223905  -1.074050
H  3.237064  -1.449801  -0.552502
H  1.888405  -2.116064  0.421671
