17
-835.267166035
S  -1.470478  -0.221251  -0.018269
O  -2.819476  -0.643795  -0.270522
O  -0.390779  -1.123679  0.282257
O  -1.058073  0.690028  -1.266466
O  -1.471752  0.845851  1.184486
H  -0.099204  0.857292  -1.240966
H  -2.314152  1.324269  1.186418
N  2.588806  -0.031889  0.564649
C  3.595083  -0.752455  -0.193965
C  2.119192  1.156348  -0.104833
H  1.804689  -0.639468  0.774720
H  4.493002  -0.132610  -0.293339
H  3.875418  -1.662940  0.340920
H  3.264683  -1.033919  -1.210533
H  2.928573  1.889597  -0.189476
H  1.772375  0.970658  -1.149463
H  1.315622  1.619753  0.476237
