17
-835.265504591
S  -1.212570  -0.101573  0.023652
O  -0.682404  -0.946923  -1.009612
O  -0.591715  0.086387  1.307640
O  -1.431247  1.334680  -0.656865
O  -2.719979  -0.550468  0.339082
H  -1.499201  2.010121  0.034333
H  -3.112580  -0.937037  -0.457899
N  2.605102  0.055237  0.591825
C  2.897852  -1.128209  -0.199896
C  2.351733  1.225592  -0.228086
H  1.802037  -0.120827  1.185314
H  3.839926  -0.979680  -0.739921
H  3.026397  -1.989716  0.461062
H  2.114965  -1.368293  -0.940145
H  3.270589  1.510536  -0.753147
H  1.568418  1.073992  -0.993958
H  2.060106  2.065703  0.409095
