17
-835.266066448
S  1.488178  -0.107042  -0.122709
O  0.818868  -0.363805  -1.368965
O  2.845133  -0.487284  0.158097
O  1.337937  1.474505  0.126198
O  0.608506  -0.712874  1.070750
H  1.981256  1.752605  0.794754
H  -0.325268  -0.733225  0.801398
N  -3.269856  0.141273  -0.086106
C  -2.679782  -1.173541  0.074850
C  -2.314212  1.217971  0.113816
H  -3.689343  0.219065  -1.005232
H  -2.399560  -1.318011  1.127711
H  -3.413019  -1.948828  -0.159926
H  -1.794759  -1.347802  -0.568003
H  -1.975233  1.212788  1.157207
H  -1.427513  1.154523  -0.540448
H  -2.798000  2.181735  -0.062020
