17
-835.302995196
S  1.290306  -0.146251  0.010715
O  2.448447  -1.022245  -0.008773
O  0.437250  -0.211124  -1.211207
O  0.449041  -0.176330  1.232058
O  1.878160  1.382760  0.034161
H  -1.222098  -0.078089  0.802347
H  2.734322  1.365333  -0.413055
N  -1.900438  -0.014217  0.005536
C  -2.541379  1.314021  -0.016432
C  -2.820523  -1.165729  -0.003284
H  -1.188535  -0.090783  -0.767382
H  -3.176605  1.427873  0.863437
H  -1.757914  2.072199  -0.006983
H  -3.141043  1.413639  -0.922533
H  -3.463719  -1.126610  0.877342
H  -3.429928  -1.137662  -0.907962
H  -2.228091  -2.080599  0.012986
