17
-835.299961495
S  -1.243386  -0.067010  -0.000347
O  -1.777593  -1.413032  0.010947
O  -0.476202  0.311109  -1.223777
O  -2.555732  0.887289  0.005957
O  -0.459207  0.321300  1.211137
H  -2.265776  1.808478  -0.010772
H  1.204510  0.263776  0.771119
N  1.889432  0.095854  -0.008316
C  2.280362  -1.330701  0.000827
C  3.005589  1.057004  0.005295
H  1.229320  0.260363  -0.804579
H  2.854681  -1.541992  0.903858
H  1.370963  -1.933000  -0.009080
H  2.879431  -1.548190  -0.884536
H  3.601657  0.908447  0.907017
H  3.629017  0.904076  -0.877054
H  2.598511  2.068085  -0.003057
