17
-835.302995206
S  -1.290268  0.146063  -0.010627
O  -2.447769  1.022891  0.009003
O  -0.448796  0.176073  -1.231887
O  -0.437322  0.209816  1.211385
O  -1.879214  -1.382492  -0.034828
H  1.188743  0.089795  0.767775
H  -2.735400  -1.364683  0.412321
N  1.900444  0.013894  -0.005367
C  2.542916  -1.313587  0.016407
C  2.819212  1.166461  0.003144
H  1.221700  0.077174  -0.801990
H  3.142609  -1.412713  0.922544
H  1.760356  -2.072699  0.006712
H  3.178370  -1.426523  -0.863417
H  3.428973  1.139129  0.907610
H  3.462148  1.128080  -0.877705
H  2.225708  2.080642  -0.012950
