17
-835.302995199
S  1.290297  0.146244  0.010661
O  2.448383  1.022289  -0.008884
O  0.448884  0.176597  1.231913
O  0.437368  0.210705  -1.211336
O  1.878216  -1.382750  0.034603
H  -1.188719  0.090612  -0.767690
H  2.734388  -1.365423  -0.412597
N  -1.900412  0.014182  0.005407
C  -2.541552  -1.313959  -0.016388
C  -2.820323  1.165822  -0.003207
H  -1.221840  0.077962  0.802092
H  -3.141635  -1.413446  -0.922224
H  -1.758194  -2.072257  -0.007323
H  -3.176396  -1.427788  0.863760
H  -3.429759  1.137998  -0.907874
H  -3.463507  1.126657  0.877425
H  -2.227770  2.080611  0.013207
