17
-835.299961340
S  1.243118  0.066865  -0.000296
O  0.470109  -0.317973  -1.218702
O  1.774239  1.414178  0.000859
O  0.466621  -0.318081  1.216378
O  2.557674  -0.884421  0.001994
H  -1.214405  -0.262314  0.784863
H  2.269471  -1.806322  0.001810
N  -1.889267  -0.095794  -0.001514
C  -2.280764  1.330637  0.000639
C  -3.005172  -1.057337  0.000688
H  -1.219012  -0.261313  -0.791089
H  -2.864640  1.544196  0.897014
H  -1.371547  1.933295  -0.001793
H  -2.870624  1.545520  -0.891506
H  -3.612702  -0.907257  0.894503
H  -3.617399  -0.906247  -0.889761
H  -2.597683  -2.068272  -0.000894
