17
-835.267307633
S  -1.411830  -0.023346  -0.135351
O  -2.844361  -0.118327  -0.148864
O  -0.605633  0.100194  -1.320856
O  -1.066084  1.177231  0.863299
O  -0.806328  -1.290476  0.648956
H  -0.116343  1.383725  0.806690
H  -1.435842  -1.578739  1.326544
N  2.494152  0.045658  -0.583432
C  2.306866  1.242503  0.199678
C  2.949694  -1.087266  0.199563
H  1.645092  -0.183271  -1.087391
H  3.272013  1.624606  0.550139
H  1.846765  2.022979  -0.414032
H  1.699994  1.083243  1.122224
H  3.948191  -0.879441  0.600079
H  2.286991  -1.330003  1.050248
H  3.023250  -1.969570  -0.440580
