17
-835.299961577
S  -1.243239  -0.066862  -0.000332
O  -1.776048  -1.413444  0.011260
O  -0.476095  0.311419  -1.223770
O  -2.556522  0.886090  0.005270
O  -0.459831  0.322696  1.211212
H  -2.267345  1.807548  -0.010101
H  1.204996  0.264124  0.771849
N  1.889376  0.096016  -0.007922
C  2.279698  -1.330709  0.000907
C  3.006001  1.056637  0.005003
H  1.228830  0.260670  -0.803879
H  2.853979  -1.542497  0.903845
H  1.370051  -1.932635  -0.009158
H  2.878648  -1.548216  -0.884537
H  3.602618  0.907723  0.906305
H  3.628752  0.903387  -0.877765
H  2.599446  2.067920  -0.003028
