17
-835.263870829
S  -1.283926  0.107357  -0.024383
O  -0.809609  0.371580  -1.354630
O  -0.734054  0.696867  1.165207
O  -2.861798  0.404563  -0.061382
O  -1.255302  -1.478567  0.227753
H  -3.189621  0.498098  0.845407
H  -1.330952  -1.937740  -0.621736
N  3.279833  -0.072308  0.097171
C  2.620912  1.218682  -0.032590
C  2.345792  -1.183845  0.069643
H  3.966463  -0.183063  -0.640252
H  1.971680  1.380441  0.833637
H  3.371313  2.013951  -0.045500
H  1.994390  1.307896  -0.936975
H  1.684332  -1.121012  0.940214
H  1.710188  -1.205341  -0.835098
H  2.892070  -2.129354  0.132328
