17
-1911.73098
S    3.665706170    -6.325689418    -17.111207945
O    3.493721523    -7.718199025    -16.840363112
O    3.889774537    -5.789847172    -18.418566684
O    2.413714730    -5.483824803    -16.470597737
O    4.862499372    -5.804414780    -16.116257017
H    2.190851964    -4.642997122    -16.904659100
H    5.089965742    -6.382089114    -15.369327948
N    7.873374704    -5.972625283    -20.269446103
C    7.071277307    -6.976635275    -19.540562554
C    7.467507299    -4.597821758    -19.909630563
H    8.864937583    -6.107170280    -20.080624043
H    5.997100746    -6.803553304    -19.741815132
H    7.318182897    -7.976185956    -19.933290328
H    7.220031714    -6.975095857    -18.451982489
H    6.380958563    -4.478950020    -20.071351398
H    7.685327163    -4.314136536    -18.870072089
H    7.979749142    -3.895330506    -20.586815609
