17
-1912.03132
S    27.589663898    -22.931639957    9.494512396
O    28.332839291    -23.542702281    8.428450663
O    26.478910184    -22.054278329    9.263637565
O    27.152250959    -24.058760160    10.554980850
O    28.704097022    -22.122572526    10.408520639
H    26.423925325    -23.827243499    11.238327103
H    29.619171980    -22.424536759    10.321893375
N    25.185474670    -23.556754070    12.461847052
C    25.482668111    -24.575385277    13.492909009
C    23.895196457    -23.824097980    11.788866595
H    25.182999587    -22.621635089    12.873449674
H    25.636282253    -25.553808529    13.004433068
H    26.425694156    -24.311607439    14.000778437
H    24.698354593    -24.691557826    14.254267618
H    23.979663148    -24.745652960    11.186780533
H    23.044105902    -23.939490837    12.475183822
H    23.672779885    -22.995834284    11.090913379
