17
-1911.99847
S    8.514942410    -2.741586873    -25.335936127
O    8.919972354    -3.277953696    -24.069290032
O    8.329438745    -3.588748821    -26.483390677
O    7.102547561    -1.912769156    -25.165532618
O    9.491206221    -1.520499569    -25.724483378
H    6.556762035    -1.860961805    -25.965617520
H    10.471559095    -1.580974489    -25.445780268
N    12.229090467    -1.743237239    -25.227981211
C    12.752491570    -0.774174018    -26.216802811
C    12.621074005    -3.129291988    -25.565854781
H    12.551120513    -1.503587933    -24.288606260
H    12.220115221    -0.913461203    -27.175601519
H    12.539718461    0.251241866    -25.870179935
H    13.831844312    -0.859356340    -26.408894616
H    12.171060493    -3.418249664    -26.532095488
H    13.707598197    -3.284786820    -25.635090910
H    12.220237823    -3.814449243    -24.796333286
