17
-1911.78105
S    7.616512023    1.033368043    -6.488056986
O    8.623101367    0.227463128    -5.874070866
O    7.357734095    1.038696256    -7.897592960
O    6.176273742    0.755555063    -5.758356363
O    7.859678700    2.573334783    -5.989354114
H    5.377980047    0.955542826    -6.273633341
H    8.509806034    2.716944152    -5.283205643
N    7.031831742    2.693801468    -10.607951347
C    7.638001284    1.758006493    -11.577187475
C    5.658658562    3.063600694    -11.005535835
H    7.037923769    2.279922442    -9.671413436
H    7.766582176    2.266809135    -12.545808850
H    8.639842609    1.477691458    -11.210179056
H    7.062223159    0.835170453    -11.740246333
H    5.690727671    3.595343594    -11.970879020
H    4.965072497    2.215343592    -11.101134765
H    5.254485534    3.764599754    -10.257250491
