17
-1912.04670
S    8.949893885    -16.937794820    -1.510585819
O    9.504055697    -17.780306531    -2.530196362
O    8.615301400    -15.560652995    -1.731423525
O    7.552817143    -17.674842438    -0.992293735
O    9.809514188    -17.093132298    -0.158203870
H    6.832962357    -17.088308873    -0.726890778
H    9.920692103    -18.059045702    0.183383094
N    9.563055062    -19.782590675    0.273851615
C    9.451892092    -20.247079916    1.672431696
C    10.581415332    -20.545103313    -0.480033432
H    8.651677612    -19.844853130    -0.194942801
H    10.417558305    -20.114912552    2.188238653
H    8.705901884    -19.625860737    2.198244470
H    9.152259896    -21.301061796    1.769991941
H    11.567812680    -20.437453816    0.000031436
H    10.357368801    -21.617600455    -0.572591390
H    10.659761230    -20.117984543    -1.500432108
