17
-1912.07151
S    26.847050830    -24.963639122    1.139242327
O    27.508834798    -26.207535892    0.828422540
O    26.265590979    -24.127269155    0.127549281
O    25.618861302    -25.292970998    2.191274773
O    27.827172781    -24.121262475    2.088341819
H    24.807344451    -24.780383759    2.063730673
H    28.648371142    -24.645084679    2.473674507
N    29.688605832    -25.957792560    2.730854952
C    29.749759107    -26.346275137    4.155356448
C    31.032058951    -25.689945307    2.175057752
H    29.207148458    -26.680593810    2.172466241
H    30.305926439    -25.591258470    4.734813543
H    28.721416721    -26.381701518    4.557424411
H    30.219411395    -27.326204231    4.328581366
H    31.495829813    -24.841455710    2.704052356
H    31.716578323    -26.549003759    2.234018458
H    30.927853964    -25.405682050    1.112346094
