17
-1911.75878
S    9.396432587    -13.977811556    -6.795235948
O    10.240909409    -15.072544538    -7.169492250
O    8.722236786    -13.131451309    -7.726350759
O    8.265694492    -14.540770044    -5.749023390
O    10.265146208    -13.057214780    -5.754540807
H    7.392881637    -14.116148845    -5.767635969
H    10.983118136    -13.499507809    -5.273885479
N    10.454715417    -18.180899132    -6.358818758
C    11.822828808    -18.572908926    -5.966364863
C    9.505186423    -18.346654361    -5.238890972
H    10.440295336    -17.209541801    -6.684969190
H    11.831787643    -19.637261930    -5.680936545
H    12.481076985    -18.461158060    -6.844666178
H    12.246139453    -17.986511521    -5.138058359
H    9.434976915    -19.413285576    -4.972310270
H    9.761802506    -17.778282508    -4.333253728
H    8.506549547    -18.024444887    -5.579116864
