17
-1912.05122
S    11.664004103    -22.555756828    8.151267546
O    12.896050068    -23.069177755    7.614869548
O    11.603664075    -21.289560899    8.828637820
O    10.552221371    -22.450064397    6.938293335
O    10.999312380    -23.703081615    9.054863731
H    9.924235607    -21.715859390    7.014800945
H    11.569858619    -24.549164696    9.245603851
N    12.663465280    -25.791459374    9.680131526
C    13.911425965    -25.566330896    8.915897295
C    12.046869492    -27.092752000    9.337390525
H    12.849990770    -25.743953917    10.683983901
H    13.689738443    -25.534923665    7.832207928
H    14.317250881    -24.568029009    9.165845864
H    14.689358543    -26.319978801    9.094199515
H    11.750694383    -27.092139772    8.273550761
H    12.706524907    -27.956594731    9.507112537
H    11.129972314    -27.230004207    9.935093904
