17
-1912.02086
S    14.016387743    -17.206950829    19.668158417
O    13.951088817    -18.637296115    19.501646375
O    14.043652856    -16.332236892    18.536402308
O    12.842845130    -16.796176701    20.698201121
O    15.310319979    -16.875558323    20.627689745
H    11.939973733    -17.269867832    20.592904271
H    15.373883930    -17.388625257    21.445800683
N    10.492502246    -18.218376742    20.236271033
C    10.903915480    -19.629061017    20.419830156
C    10.094460877    -17.953810853    18.834735130
H    9.724802990    -17.987428873    20.868863700
H    11.843846786    -19.813077291    19.856602050
H    11.125634965    -19.810385759    21.483641604
H    10.156509648    -20.362992193    20.088930266
H    10.956571679    -18.124989512    18.164901830
H    9.263311251    -18.580219667    18.479413639
H    9.800312004    -16.895231768    18.734910151
