17
-1911.77080
S    1.919012330    0.403214173    -0.098729139
O    1.967249343    -0.463645509    -1.234137043
O    1.172967893    1.623922945    -0.070842021
O    1.454821342    -0.454105114    1.219814570
O    3.473240305    0.703281478    0.328406567
H    0.967984526    0.031678974    1.905855454
H    4.147665987    0.111726642    -0.044977564
N    -1.631323398    3.379126931    -3.523607586
C    -0.784471346    2.167329008    -3.500477037
C    -2.947757193    3.122824151    -2.901332714
H    -1.157970104    4.139282925    -3.034769217
H    -1.242260607    1.390243234    -4.132879685
H    0.197847697    2.411602771    -3.937122050
H    -0.619309958    1.746827965    -2.496159360
H    -3.499532768    2.390460940    -3.513762374
H    -2.896439966    2.742675193    -1.870513599
H    -3.530180581    4.058788015    -2.902976112
