17
-1911.74617
S    5.359006086    -3.599004598    -17.422523292
O    5.996994504    -4.089859786    -18.603200884
O    4.277698350    -2.664598172    -17.425219488
O    4.866647290    -4.864399698    -16.499390612
O    6.561145352    -3.041300490    -16.451944540
H    4.059672380    -4.728454193    -15.975107220
H    7.469498647    -3.245239850    -16.730845699
N    6.941689944    -5.850658243    -12.413935617
C    5.715274036    -5.468105456    -11.684039527
C    6.950136578    -5.300147533    -13.784592727
H    7.765508941    -5.536460723    -11.902633624
H    4.833807296    -5.852589436    -12.222413841
H    5.731805665    -5.955774169    -10.694481515
H    5.585916641    -4.385333958    -11.542467960
H    6.114331121    -5.736869665    -14.359790207
H    6.870611042    -4.203959241    -13.839757426
H    7.880944951    -5.612591212    -14.284880982
