17
-1912.04082
S    22.997587178    -25.156817430    1.149583458
O    21.855881121    -25.963432128    0.818014653
O    24.168966392    -25.699569183    1.776862859
O    23.438502797    -24.276096808    -0.115669968
O    22.412256268    -23.953532810    2.126841751
H    24.300744561    -23.710332474    -0.032642453
H    21.450192034    -23.913068256    2.214025889
N    25.663807536    -22.677851249    0.100403732
C    26.880629507    -23.517864994    0.029695368
C    25.576758104    -21.951845185    1.388146637
H    25.640989984    -22.017283324    -0.678744701
H    26.826148227    -24.308870517    0.802717945
H    26.916305192    -24.023124731    -0.950317546
H    27.818314802    -22.961696812    0.171594535
H    25.793501913    -22.631210764    2.231671273
H    26.255548332    -21.090651123    1.460834164
H    24.538836031    -21.594695265    1.520033558
