17
-1912.07349
S    29.520402062    -23.497893108    15.136709022
O    29.971825479    -24.854833645    15.278002554
O    29.746225530    -22.726654007    13.946813112
O    27.883186248    -23.484952390    15.370347799
O    29.977740444    -22.667217429    16.432549125
H    27.391090121    -22.819570378    14.870065753
H    30.049583912    -23.193340096    17.321308505
N    30.005103029    -24.297420293    18.643978661
C    30.342713088    -23.586281791    19.896745529
C    30.999532716    -25.346821446    18.325226163
H    29.070666522    -24.709043962    18.711195444
H    31.292293666    -23.039158240    19.765907217
H    29.559120979    -22.840592401    20.113838503
H    30.446666163    -24.246295318    20.770673392
H    31.981620034    -24.884584315    18.130931071
H    31.122349184    -26.103901938    19.111533786
H    30.692085596    -25.857245283    17.387367467
