17
-1912.06572
S    4.630548046    -5.210058573    -16.173554605
O    5.549983519    -4.482672895    -15.344504648
O    3.998111987    -4.609383216    -17.321904562
O    5.288953560    -6.594363051    -16.653810220
O    3.463938569    -5.772848367    -15.156030302
H    5.291055636    -6.763526958    -17.684009039
H    3.737877859    -5.897413198    -14.234863411
N    5.048741737    -6.446706672    -19.339119675
C    4.229737961    -7.520378543    -19.940217864
C    6.322462005    -6.255214106    -20.064644716
H    4.515189693    -5.563848465    -19.301128424
H    4.777472552    -8.476207509    -19.910319247
H    3.311515185    -7.644826056    -19.338464808
H    3.932906717    -7.324788591    -20.981242148
H    6.917946071    -7.182449245    -20.032647863
H    6.195633436    -5.965169946    -21.118400991
H    6.908502599    -5.467371085    -19.558476273
