17
-1911.71087
S    9.757392142    0.436949118    -19.527486234
O    10.767621104    1.435981463    -19.691789849
O    8.517715500    0.427067955    -20.236998906
O    10.422957474    -1.047861675    -19.744004534
O    9.456257882    0.355408098    -17.916211939
H    9.854682614    -1.712847804    -20.168383685
H    10.083107122    0.814817204    -17.334405919
N    8.555740176    -1.602716444    -25.358271761
C    7.918240271    -2.934223782    -25.373458236
C    10.006891988    -1.693313198    -25.102031146
H    8.381906967    -1.117478770    -26.237875871
H    8.009103559    -3.391355510    -24.374165625
H    6.841258602    -2.805231196    -25.575207820
H    8.333842894    -3.633829601    -26.113294713
H    10.181549741    -2.193739732    -24.135706219
H    10.575529998    -2.228460971    -25.876361311
H    10.406547413    -0.668199364    -25.012701538
