17
-1911.74295
S    15.417862791    -20.494374536    6.910332346
O    15.881599468    -20.892737632    5.618175839
O    14.110197069    -19.981497604    7.173535261
O    15.654068781    -21.733549847    7.960174137
O    16.538817504    -19.450898091    7.498684326
H    15.024012972    -21.810567268    8.694905060
H    17.411973714    -19.469638321    7.073053339
N    21.269581169    -21.694423139    6.892281200
C    21.380437356    -21.314716889    5.468295360
C    19.875152369    -21.596262360    7.370824047
H    21.619854167    -22.643077737    7.028120147
H    21.135247553    -20.245648972    5.358457538
H    22.427938118    -21.443753759    5.147710697
H    20.732704824    -21.889407658    4.789805403
H    19.560787016    -20.540636703    7.348896778
H    19.151570335    -22.191107526    6.792254382
H    19.836076272    -21.927404015    8.422131502
