17
-1912.03607
S    9.000398840    -16.832408536    -5.868153693
O    7.699846386    -17.306626354    -6.238075493
O    9.339743899    -15.437890779    -5.884060844
O    9.282048366    -17.337366794    -4.302764994
O    10.131427669    -17.707615078    -6.595423885
H    9.554380848    -16.653613845    -3.679213403
H    10.203514327    -18.700011424    -6.297519258
N    10.062980416    -20.068275896    -5.269688232
C    11.306530257    -20.866337598    -5.250394083
C    8.889978139    -20.886270415    -5.646220485
H    9.906584541    -19.615639078    -4.361073322
H    11.458771205    -21.351803540    -6.229129464
H    12.162635269    -20.189591446    -5.081532977
H    11.322197471    -21.647728248    -4.475978017
H    9.026964713    -21.296239020    -6.660201689
H    8.690279717    -21.722007975    -4.960121895
H    7.993738617    -20.236130918    -5.673417256
