17
-1912.04749
S    10.804770323    -24.108878778    6.703578025
O    10.773436537    -25.395770000    7.338044730
O    10.129394310    -23.843337324    5.463735636
O    10.199166133    -23.002507663    7.776739117
O    12.323499970    -23.597564134    6.626605823
H    9.618627248    -22.326148946    7.402525508
H    12.942327676    -23.801445919    7.427662902
N    14.000020393    -24.036961001    8.773706070
C    14.740790757    -25.293925321    8.523192956
C    13.196490160    -24.122928206    10.013967995
H    14.647478981    -23.248133951    8.825905982
H    14.024406526    -26.128390530    8.407642872
H    15.293641433    -25.202745004    7.572523936
H    15.452834850    -25.560974905    9.317247906
H    12.516351620    -24.993370028    9.962637404
H    13.797500297    -24.211077974    10.929757052
H    12.562422431    -23.221932252    10.094051360
