17
-1912.03386
S    7.044495719    -11.742455634    -11.735834750
O    7.410351660    -12.603106384    -12.821646602
O    6.574353533    -10.401832922    -11.950020939
O    5.831178395    -12.497141793    -10.883629251
O    8.183518986    -11.765915158    -10.609156322
H    5.039931710    -11.969142804    -10.719381748
H    8.380085334    -12.665288916    -10.134472169
N    8.546813340    -14.077065531    -9.185127347
C    9.843585302    -14.732054016    -9.466291288
C    7.409980535    -14.972950816    -9.496188918
H    8.505986901    -13.779131093    -8.207997703
H    9.896354103    -15.008269269    -10.534621085
H    10.659830834    -14.015720598    -9.271729752
H    10.022857002    -15.638244125    -8.869586539
H    7.480306379    -15.329406554    -10.539033759
H    7.339456806    -15.849333251    -8.837864887
H    6.468722248    -14.393991740    -9.420869207
