17
-1912.04379
S    -9.734962677    -14.827165936    21.652967768
O    -8.621512379    -14.299465795    20.922623872
O    -10.081173355    -14.342064393    22.961860786
O    -11.053821745    -14.802437554    20.727214524
O    -9.565788124    -16.467689020    21.728520121
H    -11.922709787    -14.404462492    21.131585412
H    -9.755913053    -16.949100118    20.911771456
N    -13.249369097    -13.656011520    21.870090317
C    -13.347736186    -14.188277304    23.247681094
C    -14.444305087    -13.988404069    21.063728664
H    -13.107552989    -12.643237905    21.894441382
H    -13.435905138    -15.286789991    23.223699291
H    -12.404114343    -13.954412436    23.785784871
H    -14.190913519    -13.785092579    23.824813782
H    -14.543127765    -15.084700833    20.983303301
H    -15.385242435    -13.587517448    21.467556642
H    -14.306442223    -13.596181892    20.041046187
