17
-1912.05089
S    29.705964505    -22.616766531    4.192989116
O    30.315271230    -23.754740724    3.561714484
O    28.281196096    -22.419590395    4.207418115
O    30.238964676    -22.473742845    5.701887085
O    30.423143866    -21.301373293    3.504196932
H    29.523849628    -22.374010246    6.446297516
H    31.288796487    -21.464602784    3.100454225
N    28.130954273    -22.289767302    7.444381321
C    28.328964562    -21.252861566    8.479538209
C    27.897619523    -23.619740708    8.049281883
H    27.357834794    -22.038457851    6.818124246
H    29.243650677    -21.475161648    9.055535696
H    28.475537724    -20.275005822    7.989609676
H    27.492725758    -21.162022857    9.188748266
H    28.823450567    -23.968715294    8.538285610
H    27.089442138    -23.637382231    8.795725467
H    27.647007999    -24.343300841    7.253786861
