17
-1912.04424
S    8.806283658    -15.370485651    -6.823521138
O    10.007167680    -15.776829507    -7.492926393
O    8.068041504    -14.202927590    -7.217534375
O    7.724740516    -16.628861433    -6.936073292
O    9.035552938    -15.386857607    -5.237150479
H    6.840517432    -16.399105958    -7.247481067
H    9.282064706    -16.294892691    -4.803826624
N    9.602142594    -17.858932299    -4.177891048
C    10.912103044    -18.299446148    -4.707760041
C    8.506108254    -18.737862950    -4.645408996
H    9.623002090    -17.832480820    -3.157026697
H    10.909484225    -18.228021186    -5.812069582
H    11.699122293    -17.618264825    -4.341799686
H    11.182621776    -19.328506737    -4.432668194
H    8.450124744    -18.708576109    -5.751150540
H    8.607982961    -19.786182463    -4.333160339
H    7.545565257    -18.348265142    -4.267356354
