17
-1912.04341
S    14.616911043    -22.020482750    5.069698787
O    15.257339256    -22.990195692    4.223148130
O    14.383923458    -20.674554793    4.622886972
O    13.141089010    -22.586635546    5.533678855
O    15.370864842    -22.007659720    6.488182523
H    12.476600148    -21.903787854    5.715269656
H    16.334776837    -22.376608169    6.520272437
N    17.997981919    -22.857595516    6.421983078
C    18.381741756    -22.786378981    4.993581824
C    18.078693138    -24.244057247    6.933901566
H    18.591350867    -22.240970147    6.980341669
H    17.668149799    -23.384282854    4.388326257
H    18.301165907    -21.742462258    4.646725127
H    19.397901433    -23.144666538    4.781966060
H    17.424495160    -24.902119488    6.334065419
H    19.093277498    -24.667634295    6.918853847
H    17.705130584    -24.265561878    7.971664104
