17
-1912.06960
S    5.225519269    -3.541366422    -12.030193343
O    4.145920741    -4.197863892    -11.343247944
O    5.018122969    -2.392678406    -12.867963096
O    6.336988602    -3.062024849    -10.907056563
O    6.072487600    -4.656893561    -12.811305986
H    6.783588238    -2.223613621    -11.094275880
H    5.878399684    -5.651286585    -12.581873148
N    5.562336264    -7.245071493    -12.053755795
C    6.027030978    -8.176608754    -13.105786749
C    4.108045351    -7.374839009    -11.807747838
H    6.078155816    -7.408045529    -11.185668164
H    5.530901043    -7.933504655    -14.061204463
H    7.111728306    -8.037777287    -13.256223276
H    5.838192914    -9.236381954    -12.882030214
H    3.546086729    -7.288418995    -12.751228821
H    3.820867540    -8.315474641    -11.319391721
H    3.784437646    -6.527390663    -11.163973651
