17
-1912.03133
S    -0.331070391    -19.974759691    21.688410302
O    0.087152269    -21.263155092    22.166671922
O    0.208030889    -19.373911383    20.502911416
O    -1.935171911    -19.909020643    21.619402995
O    -0.072629216    -18.934176716    22.949395767
H    -2.354120301    -19.080149161    21.177354395
H    0.142475591    -19.344507284    23.797737447
N    -3.021236823    -17.585884695    20.562994738
C    -3.789492488    -17.033284947    21.700545064
C    -3.903822341    -17.942354305    19.430391902
H    -2.304321383    -16.921650226    20.259925690
H    -4.429522420    -17.825062996    22.127855737
H    -3.087566722    -16.714603534    22.491091917
H    -4.429498368    -16.177968021    21.441042213
H    -4.512289908    -18.822139405    19.704272511
H    -4.586683745    -17.137573285    19.120976259
H    -3.284721050    -18.225672367    18.561324425
