17
-1912.05772
S    11.393887635    -23.110975831    5.039631888
O    12.124319071    -24.210419467    4.473020741
O    10.087096110    -22.729906563    4.581241856
O    11.226945029    -23.407394742    6.659748429
O    12.350977048    -21.826343856    5.102914956
H    10.412346942    -23.083535252    7.066919977
H    13.360019124    -21.994974329    5.274535840
N    14.995387572    -22.353638582    5.599155582
C    15.570265817    -22.851700996    4.329077219
C    15.041402957    -23.389996617    6.655228863
H    15.483919092    -21.510810931    5.906228249
H    15.028775066    -23.763358206    4.008336076
H    15.418216538    -22.090618843    3.544547703
H    16.641100328    -23.091225119    4.385190271
H    14.484217686    -24.286779260    6.321204659
H    16.057616423    -23.703559741    6.930812550
H    14.532990198    -23.009277411    7.557921172
