17
-1912.06179
S    29.528862859    -26.403451449    1.460704211
O    30.712300740    -25.735791237    1.936415405
O    29.574455294    -27.682636514    0.809702322
O    28.493932930    -26.597803518    2.732268633
O    28.700979613    -25.348440870    0.578031638
H    27.917209383    -27.374333615    2.689675309
H    29.026624498    -24.360014739    0.630563829
N    30.005621390    -22.973065776    0.819044877
C    29.895040133    -22.476475891    2.208817589
C    29.641693695    -21.932327773    -0.166036119
H    30.958470540    -23.316881651    0.650924717
H    28.844325526    -22.240015175    2.441150143
H    30.221269556    -23.282169539    2.897600378
H    30.502508726    -21.583313726    2.415662831
H    28.618527068    -21.570016343    0.030072984
H    30.315928331    -21.062894793    -0.167403569
H    29.644484353    -22.378981602    -1.175549916
