17
-1912.03048
S    29.809504954    -23.781759499    2.836213495
O    29.435112151    -25.117286085    2.467742613
O    29.663136631    -22.660518919    1.955342719
O    29.197204349    -23.411266426    4.277821453
O    31.412006398    -23.862080779    3.260900768
H    29.518983904    -22.527031160    4.692270785
H    31.778933911    -24.748046708    3.373795506
N    30.540568615    -21.143013853    5.085355450
C    31.178801095    -21.441301555    6.385858807
C    29.781883288    -19.875432034    5.121879948
H    31.244874014    -21.116147601    4.341219908
H    30.408051602    -21.524089575    7.170285824
H    31.685402387    -22.420563150    6.314786953
H    31.918321402    -20.693684268    6.707589856
H    28.975272217    -19.944060505    5.870398558
H    30.396360149    -18.993635295    5.356325025
H    29.307356447    -19.715933295    4.136284472
