17
-1912.06524
S    10.061487246    3.178255164    -24.487796915
O    10.521932442    2.897164202    -25.818178962
O    9.286553015    2.242033645    -23.716587521
O    11.280236277    3.682905329    -23.571438487
O    9.188612416    4.574925994    -24.604174166
H    11.196318197    3.486656130    -22.553825783
H    9.344544311    5.107136031    -25.397120881
N    10.536345599    3.038394816    -21.037018649
C    11.067707102    3.871814411    -19.938148355
C    10.802264665    1.599189861    -20.816390618
H    9.527674247    3.187413252    -21.152541394
H    12.158849635    3.732360749    -19.856876978
H    10.888586718    4.934856628    -20.174349934
H    10.621649780    3.654131639    -18.956252808
H    11.887302393    1.414407624    -20.790032292
H    10.358309845    1.201541115    -19.892933961
H    10.381660783    1.031609899    -21.671890535
