17
-1912.04563
S    27.805394300    -25.922825043    2.297645088
O    28.851955460    -26.708432203    1.702562589
O    26.564818165    -25.681705716    1.613861460
O    27.390469362    -26.583400812    3.748969077
O    28.433611998    -24.530994996    2.798381024
H    26.500577064    -26.364577225    4.065435217
H    29.326533313    -24.224879101    2.380502932
N    30.760079060    -23.726933625    1.543895892
C    30.934744242    -24.658806165    0.406434594
C    31.874515852    -23.841522973    2.511680357
H    30.684076251    -22.765271184    1.207363911
H    30.851813636    -25.704696272    0.770326706
H    30.116541353    -24.510637689    -0.318193220
H    31.892223773    -24.551918761    -0.120627823
H    31.935972925    -24.877872848    2.889177935
H    32.856535188    -23.572875712    2.096449729
H    31.668263619    -23.187169126    3.375439047
