17
-1911.98170
S    3.120551792    -7.946520049    -18.339270952
O    3.461189377    -8.769842691    -19.460206561
O    2.297230212    -6.777053584    -18.495334268
O    2.412104237    -8.877429205    -17.181562224
O    4.447514893    -7.520798473    -17.527556035
H    1.946257251    -8.392135976    -16.484239377
H    5.044823173    -6.792554937    -17.915407982
N    6.185565453    -5.557446169    -18.478598242
C    6.168964380    -5.401736670    -19.949742844
C    7.478818099    -6.097415325    -18.001927632
H    5.987941484    -4.662655148    -18.026031653
H    6.319011209    -6.384288702    -20.431264943
H    5.175789678    -5.031516989    -20.261113572
H    6.933789714    -4.712215324    -20.336015146
H    7.695378589    -7.053960003    -18.508595173
H    8.335242135    -5.425776580    -18.155425979
H    7.392821451    -6.315212560    -16.922122996
