17
-1911.74226
S    14.355681969    -20.135194611    19.767607888
O    14.762797572    -21.318700416    19.078557963
O    13.554601132    -19.105391849    19.177875826
O    13.590444228    -20.551639197    21.158319004
O    15.717250548    -19.477094560    20.399515154
H    12.856324915    -19.975984904    21.430611438
H    16.501512174    -20.051134061    20.431892844
N    9.388096479    -19.033015255    18.386248575
C    10.694548370    -18.698042063    17.781418441
C    9.556466817    -19.558374977    19.757464594
H    8.783590674    -18.212981393    18.396486119
H    11.302776430    -19.614498554    17.686910604
H    10.528954982    -18.307783944    16.765699272
H    11.291622565    -17.967916967    18.349851211
H    10.163419650    -20.478629359    19.717300409
H    10.032552283    -18.856322509    20.457501537
H    8.566420994    -19.836313689    20.153960209
