17
-1912.04237
S    9.354132331    -20.776818966    2.032408924
O    10.499891443    -21.594502868    1.757988185
O    8.791665452    -19.884587531    1.057379674
O    8.112048870    -21.787034263    2.473010839
O    9.560726497    -20.016386231    3.429985122
H    7.238466142    -21.550046225    2.136656202
H    9.850145015    -20.591537854    4.240243030
N    10.140586349    -21.620474973    5.584775706
C    11.592345702    -21.885464567    5.695302646
C    9.377349989    -22.868481401    5.356722015
H    9.800705601    -21.148207554    6.424358364
H    11.968153995    -22.284931924    4.734168476
H    12.122974228    -20.937287333    5.884520546
H    11.857065983    -22.598434439    6.488641735
H    9.820804892    -23.443179688    4.523852754
H    9.321068142    -23.524824792    6.235337592
H    8.349749003    -22.602838202    5.045835900
