17
-1911.99638
S    23.597365939    -23.580180487    -0.137734612
O    24.136051539    -24.207198171    -1.309005813
O    22.697034351    -22.465848988    -0.228266450
O    22.866188621    -24.717162229    0.803129748
O    24.799288983    -23.197663958    0.870535514
H    22.503726544    -24.396869253    1.641553429
H    25.691282318    -22.898301288    0.482114516
N    27.178370283    -22.177985755    -0.190126503
C    28.279849075    -23.116336129    0.116953041
C    27.325616066    -20.902791141    0.546130118
H    27.136067717    -22.002635251    -1.197426372
H    28.229621201    -23.409671552    1.179630178
H    28.148974324    -24.032926185    -0.484498597
H    29.284090299    -22.712945576    -0.079541365
H    27.332350007    -21.097520154    1.631923268
H    28.234831486    -20.338224041    0.294816728
H    26.447514958    -20.266589380    0.333530172
