17
-1912.01321
S    26.765749714    -21.474358446    11.064750472
O    26.097502437    -22.664706950    11.538568989
O    26.059353070    -20.430328335    10.389660544
O    27.623101992    -20.890025452    12.292259745
O    27.982310810    -22.004026349    10.086737448
H    27.394661045    -21.221133869    13.243077609
H    28.291538839    -22.905131092    10.251703647
N    26.949800362    -21.737719994    14.829520193
C    27.849611151    -22.852655604    15.201675277
C    25.539290874    -22.183846059    14.759741257
H    27.049061558    -20.969173834    15.495435408
H    27.697989767    -23.704229448    14.515194825
H    28.895709245    -22.518925760    15.092021265
H    27.705716331    -23.215958962    16.229671353
H    25.413903171    -22.860495038    13.887415515
H    25.189775217    -22.713536884    15.656187014
H    24.885299145    -21.312911164    14.590974718
