17
-1911.72872
S    11.464493029    2.535234461    -18.018464408
O    11.767457903    1.770462870    -19.186719937
O    11.127723515    3.921854278    -18.029278245
O    10.299626530    1.764553486    -17.150452492
O    12.709440268    2.295538497    -16.972851911
H    9.962329878    2.231920758    -16.369687766
H    13.430418611    1.718982335    -17.269672094
N    9.388345291    -1.358761208    -17.350312558
C    10.559630140    -2.065967544    -17.907640458
C    8.954021669    -1.960086716    -16.073569838
H    9.609722039    -0.368970369    -17.224801840
H    10.287846127    -3.110129686    -18.129057919
H    10.833000675    -1.586958357    -18.864634643
H    11.442960859    -2.067405239    -17.253807508
H    8.641098477    -3.002939356    -16.251057340
H    9.717470161    -1.959265523    -15.282595644
H    8.069983125    -1.411153044    -15.709625018
