17
-1912.05315
S    27.663443571    -24.874835938    10.455464907
O    28.085415076    -25.743808085    11.517531928
O    27.553370765    -25.312864463    9.091909144
O    26.166422903    -24.290057652    10.854755629
O    28.503944899    -23.510357960    10.524098181
H    25.558071838    -24.148126319    10.117092618
H    28.701870505    -23.111406581    11.456898719
N    28.910674381    -22.417657817    13.014868331
C    30.360168067    -22.164766052    13.175634826
C    28.412442617    -23.381119107    14.021909956
H    28.390527084    -21.540177822    13.074587168
H    30.914438908    -23.119072232    13.151594576
H    30.711394753    -21.559459469    12.321630070
H    30.622115019    -21.641529314    14.106531919
H    28.884954970    -24.368893045    13.855217536
H    28.595432151    -23.078997726    15.062064241
H    27.325934040    -23.521956956    13.883888585
