17
-1912.05085
S    18.091865436    -20.185258113    18.313440650
O    19.240941442    -20.850478680    18.861780590
O    17.685933240    -20.341867461    16.945085883
O    16.820327012    -20.425499125    19.262485367
O    18.344560090    -18.574592703    18.588822466
H    15.878384686    -20.267994786    18.870834308
H    19.017569230    -18.361581059    19.250097093
N    14.258049303    -20.016955673    18.329109100
C    13.902153671    -21.168800959    17.470057459
C    14.194919523    -18.743886253    17.576980885
H    13.642271509    -19.978676603    19.143220676
H    14.595571813    -21.219267163    16.609889410
H    14.028648137    -22.100023776    18.048397319
H    12.875229715    -21.136034374    17.079247832
H    14.896742102    -18.781373927    16.722663102
H    13.195384843    -18.503362630    17.187672427
H    14.523865227    -17.920692549    18.233997765
