17
-1911.76435
S    0.441082339    -0.519942582    1.944130692
O    0.514401977    -0.678486976    0.523871344
O    1.038019199    0.572840638    2.645533218
O    -1.130105071    -0.576357619    2.408950605
O    0.952732120    -1.931697779    2.600472188
H    -1.374286570    -0.056632083    3.191831504
H    0.972137525    -2.704473087    2.012248938
N    2.823395288    1.862200567    -2.682947953
C    2.716731566    1.533545186    -1.245367413
C    2.182132988    0.819766199    -3.512616363
H    2.394183108    2.767841236    -2.867282418
H    3.297577816    0.618942837    -1.039080853
H    3.163043275    2.348970143    -0.655781140
H    1.687439514    1.360891029    -0.891660722
H    2.737963387    -0.125235678    -3.394655304
H    1.128324306    0.623942072    -3.262413272
H    2.247651979    1.113536871    -4.572077279
