17
-1911.74920
S    10.366886775    0.271160348    -19.335195018
O    11.389477823    -0.690288667    -19.604400755
O    9.556870645    0.860614750    -20.357286934
O    9.340110421    -0.331678864    -18.210536882
O    11.053240826    1.455877207    -18.432399031
H    8.505854458    0.147737112    -18.076113346
H    11.927309990    1.256869266    -18.055059797
N    9.222045561    -0.455450975    -23.332611653
C    10.615452887    -0.904637627    -23.536507508
C    8.285766396    -1.597590180    -23.315348699
H    9.151847729    0.072942838    -22.457641117
H    10.708631547    -1.387188094    -24.522002074
H    11.267627387    -0.015210815    -23.542225478
H    10.987256170    -1.602974653    -22.771299857
H    8.361503105    -2.149343186    -24.265948541
H    8.445027201    -2.305980704    -22.489587748
H    7.258416802    -1.202222421    -23.245134758
