17
-1912.03384
S    6.103121410    -14.080563827    -7.764475107
O    5.586437556    -15.240975039    -8.427082570
O    6.229087472    -12.815280976    -8.432634431
O    5.134568889    -13.783612455    -6.444258963
O    7.454840873    -14.446321589    -6.982704261
H    4.803770760    -12.881578150    -6.355139162
H    7.376439746    -15.061469379    -6.154517612
N    7.138074603    -15.933404362    -4.689846441
C    8.170760278    -16.989059122    -4.600995245
C    5.771262229    -16.500789541    -4.705058345
H    7.237189984    -15.276647440    -3.912642969
H    8.070112462    -17.684645683    -5.452169036
H    9.167296900    -16.519961037    -4.677426046
H    8.132788409    -17.576490561    -3.672357864
H    5.661388782    -17.202497857    -5.550081156
H    5.493038320    -17.027267149    -3.781926859
H    5.047380672    -15.678509999    -4.872794471
