17
-1912.02629
S    13.734513555    2.078322777    -20.555008477
O    12.947144659    1.765288725    -21.715545784
O    13.588992133    3.315483645    -19.841223524
O    13.644993166    0.870866038    -19.497704909
O    15.303828075    1.914967990    -21.035496573
H    13.470791880    1.100655303    -18.510287392
H    15.443686244    1.357986299    -21.815484368
N    13.055217750    1.382994543    -16.838976291
C    13.233647670    0.062901123    -16.194159742
C    11.640608738    1.817119637    -16.811242939
H    13.647154520    2.085770727    -16.390748089
H    12.795140677    -0.716479027    -16.843479836
H    14.310057353    -0.157596312    -16.100622162
H    12.774061609    -0.021277086    -15.199221990
H    11.005757881    1.064369435    -17.307673829
H    11.243721616    1.987575874    -15.800004184
H    11.548838701    2.759085804    -17.384782322
