17
-1912.01663
S    31.241704957    -22.433824089    19.626864336
O    31.341207592    -21.843037827    18.328565821
O    29.963291043    -22.796412354    20.193789170
O    32.150126530    -23.806545982    19.665908804
O    32.020314396    -21.544635888    20.720274787
H    31.832407947    -24.495191635    20.269312091
H    31.444751914    -20.941150056    21.321601114
N    30.247285017    -19.989367613    22.175492519
C    30.942327497    -19.247478530    23.250775058
C    29.292073971    -20.978432006    22.723695499
H    29.758685054    -19.337582242    21.556719949
H    31.585837144    -19.941462083    23.818456428
H    31.598831226    -18.483471708    22.800924579
H    30.266891035    -18.750179712    23.962161297
H    29.822901976    -21.703173750    23.361856005
H    28.473106725    -20.537651591    23.307151268
H    28.855028617    -21.557133017    21.881370624
