17
-1911.76750
S    30.231204748    -20.803002253    6.983342058
O    30.124953710    -21.768835350    5.934503824
O    29.794924078    -19.447381422    6.878748858
O    29.532022472    -21.419999868    8.335155754
O    31.792044391    -20.833477077    7.485924681
H    29.254839620    -20.788356497    9.021640034
H    32.342021654    -21.562384407    7.154860563
N    28.129246749    -23.715006630    9.950125423
C    26.723599217    -24.090770749    9.700591636
C    29.009410843    -24.901699846    9.965387276
H    28.451923034    -23.047271207    9.248108736
H    26.393854189    -24.816695765    10.461536809
H    26.098917166    -23.188794773    9.814035038
H    26.537836602    -24.522982035    8.706027470
H    28.844766232    -25.452046678    10.906740423
H    28.857677402    -25.595710541    9.125876972
H    30.060695978    -24.571898468    9.953613290
