17
-1912.06580
S    7.530947861    -2.008848743    -25.444447902
O    8.490522524    -3.078709108    -25.506339271
O    6.296461605    -2.043662493    -26.179093067
O    7.093075931    -1.797169355    -23.865602171
O    8.293125830    -0.625853444    -25.710751584
H    6.186550039    -1.490630958    -23.721315011
H    9.335161211    -0.633060452    -25.721166485
N    11.016782505    -0.656947154    -25.827239880
C    11.375464019    -1.905279010    -26.538689816
C    11.575107091    -0.639769920    -24.456124553
H    11.339927168    0.158325181    -26.350994381
H    10.901975630    -2.770122111    -26.027251396
H    10.961635627    -1.875092936    -27.560449087
H    12.456194445    -2.089081776    -26.603201169
H    11.184752284    -1.501460914    -23.884752363
H    12.673732281    -0.679454753    -24.421867948
H    11.241437484    0.276829358    -23.941145800
