17
-1911.74253
S    5.449529600    3.528721305    -12.027154392
O    5.652864149    2.660591479    -10.910705431
O    5.832962029    3.223148149    -13.371309126
O    3.867102890    3.962658786    -12.104019831
O    6.082435565    4.983054948    -11.609603639
H    3.534861266    4.202927178    -12.983499515
H    6.262895189    5.124892632    -10.665734957
N    3.274851236    5.795818156    -16.761902364
C    4.463975947    4.945006157    -16.553915330
C    2.033344271    4.997062085    -16.786592668
H    3.221428878    6.509846782    -16.037843124
H    4.567800047    4.251747958    -17.405331609
H    5.361889573    5.585424285    -16.544534070
H    4.455014744    4.349587452    -15.628766913
H    2.067336959    4.302259385    -17.643414968
H    1.846005338    4.410606288    -15.876343010
H    1.179594481    5.675171374    -16.953214651
