17
-1912.01843
S    11.851842693    4.282058260    -18.014126521
O    12.413268774    3.052159868    -17.542077906
O    12.282722572    4.898439433    -19.237063457
O    10.209170711    4.043194884    -18.206500890
O    11.786403717    5.354600163    -16.823612209
H    9.849092088    4.263200685    -19.074010941
H    11.058397583    5.204686344    -16.097692012
N    9.575638336    4.708963701    -15.403969938
C    8.850082321    5.879865468    -14.869046211
C    9.750145740    3.648036580    -14.389839991
H    9.101284023    4.335458682    -16.235521278
H    9.330159272    6.237157308    -13.943035453
H    8.913693563    6.699360902    -15.607719473
H    7.789689253    5.686553758    -14.651523920
H    10.260930152    4.049684847    -13.499784103
H    8.808332330    3.182294614    -14.065393401
H    10.399614035    2.858325697    -14.813686492
