17
-1912.03183
S    13.178818428    2.312231476    -20.232538056
O    13.354718467    0.890443969    -20.224466711
O    13.433182099    3.108378827    -21.400550169
O    11.597988127    2.623637936    -19.821338691
O    13.883371230    2.961950040    -18.944318384
H    11.139259705    3.275216164    -20.365613332
H    13.480739635    2.734205263    -18.021882993
N    12.569074290    2.455179405    -16.572766546
C    13.506119367    2.456090957    -15.428064797
C    11.853106484    1.166177060    -16.699157178
H    11.896654030    3.220167739    -16.477918961
H    14.229393978    1.629528054    -15.533174500
H    14.081063814    3.398788369    -15.440915947
H    13.016313590    2.360517597    -14.448216440
H    12.574022213    0.343815412    -16.846971324
H    11.220755499    0.917559421    -15.835663892
H    11.213775222    1.202725090    -17.603006641
