17
-1912.05355
S    9.673569861    -17.065993781    -6.472685470
O    10.899544909    -17.801418433    -6.602070217
O    9.393043832    -15.883394098    -7.237809641
O    8.432564577    -18.113524235    -6.806950792
O    9.374785380    -16.802574108    -4.919543836
H    7.669462421    -17.734221670    -7.261067744
H    9.529071350    -17.592422132    -4.266680378
N    9.735199284    -18.963560645    -3.268976745
C    10.935858531    -19.686936976    -3.744794800
C    8.515261860    -19.791855536    -3.401487139
H    9.858156690    -18.670085381    -2.297935918
H    10.848393532    -19.876908255    -4.832613490
H    11.825198534    -19.046933755    -3.608813068
H    11.111373545    -20.645592595    -3.238321396
H    8.393643294    -20.118244061    -4.450618284
H    8.511509357    -20.686299103    -2.762282539
H    7.635609509    -19.175070927    -3.148037629
