17
-1912.02610
S    10.198432777    -19.824340218    0.306935492
O    9.952117146    -20.250316116    -1.042855985
O    10.795810182    -18.556096832    0.602283032
O    8.899994299    -20.049095257    1.217777273
O    11.167744839    -21.007781958    0.963181278
H    9.032481756    -20.185039002    2.235616715
H    11.464564710    -21.695198462    0.353874011
N    9.223864582    -20.580261247    3.890887452
C    8.889315636    -19.397067968    4.714250720
C    10.626241893    -21.008171936    4.093466836
H    8.586403913    -21.350829470    4.102035394
H    9.537273403    -18.549582299    4.425718785
H    7.846735586    -19.098863502    4.509253245
H    8.999537157    -19.559496507    5.796317044
H    11.310895548    -20.149783630    3.980159197
H    10.815343640    -21.472663998    5.070464354
H    10.891160108    -21.731458906    3.297759609
