17
-1911.73932
S    8.937624600    -1.373180497    -25.569811025
O    9.668747810    -2.318324005    -26.352857544
O    7.974783732    -0.460009957    -26.100294955
O    8.204960847    -2.150950548    -24.326052746
O    10.060019808    -0.527768797    -24.714055556
H    7.372589631    -1.766174142    -24.003927008
H    10.938406905    -0.936207647    -24.640944394
N    12.224831396    2.845200176    -24.004941615
C    11.095493735    3.156474587    -24.906924817
C    11.784081697    1.993957988    -22.879444491
H    12.968651236    2.381239766    -24.524913882
H    10.334719320    3.730405502    -24.352342161
H    11.459996491    3.799975248    -25.723658096
H    10.603572800    2.272286546    -25.342321956
H    11.073194222    2.562996661    -22.256702535
H    11.292704529    1.056179926    -23.182334417
H    12.654559664    1.756906301    -22.247691168
