17
-1911.72286
S    14.029108732    -18.909594138    21.336185677
O    14.414361661    -19.718609111    20.222290367
O    13.546834433    -17.570610062    21.211636060
O    12.929382688    -19.734696823    22.230824616
O    15.275889125    -18.935959449    22.403363639
H    12.474671173    -19.243618520    22.933447811
H    15.960747053    -19.608330449    22.256155518
N    10.283465023    -18.146746403    18.362394153
C    10.493851619    -19.004572927    17.177388214
C    9.818750271    -18.934157643    19.524417860
H    11.147811239    -17.660855921    18.605380114
H    9.620830178    -19.657059486    17.019564337
H    10.574495554    -18.348690848    16.293454218
H    11.392339911    -19.637209198    17.229560159
H    8.831845837    -19.368747534    19.298333922
H    10.496674314    -19.747237602    19.823749767
H    9.686690375    -18.251003176    20.379835505
