17
-1912.06739
S    7.304078161    -2.320765202    -24.202102087
O    7.040940025    -2.771312470    -25.542335438
O    6.406999957    -1.455675020    -23.487548948
O    7.475450555    -3.655750099    -23.243021888
O    8.796124057    -1.737701252    -24.146861804
H    7.183831232    -3.551825833    -22.325798708
H    9.441104230    -1.993152169    -24.921125498
N    10.458509792    -2.491880103    -26.192806584
C    10.259046850    -1.533988511    -27.304384844
C    10.027513110    -3.856028356    -26.576123371
H    11.437499915    -2.496354926    -25.901053748
H    9.205086864    -1.564277953    -27.637764648
H    10.461432708    -0.513160077    -26.937703532
H    10.899576704    -1.724260401    -28.177406601
H    8.933178869    -3.856712709    -26.765886328
H    10.529456919    -4.249861583    -27.470133642
H    10.212164019    -4.546540177    -25.736600334
