17
-1912.04429
S    7.979409676    -22.566739891    3.837995579
O    8.907674254    -23.423658969    3.158749324
O    7.178157621    -21.593904608    3.149677051
O    6.908042932    -23.536870424    4.649464289
O    8.701478020    -21.885013111    5.098864343
H    6.001088194    -23.209937037    4.707916279
H    9.249513295    -22.493611504    5.727333698
N    10.076001431    -23.499652813    6.857571525
C    11.470689288    -23.006820370    6.911066374
C    10.014308150    -24.906900695    6.403413005
H    9.632074729    -23.404679266    7.773321661
H    11.912948477    -23.036315995    5.898670541
H    11.467242683    -21.952680113    7.238300165
H    12.123393232    -23.578865208    7.586595969
H    10.433228902    -24.990394900    5.383170329
H    10.551484806    -25.610306316    7.055142121
H    8.956190479    -25.220420867    6.342341011
