17
-1911.73882
S    7.546905530    -5.207575320    -18.552384438
O    8.803775888    -4.585135141    -18.830288807
O    6.297171527    -4.513810449    -18.567389363
O    7.362834694    -6.522117600    -19.515352553
O    7.720939853    -5.966388924    -17.108022318
H    6.456799239    -6.726283373    -19.801751888
H    8.630656929    -6.116142348    -16.802694533
N    7.316326895    -1.353702905    -14.872480571
C    7.943487228    -1.521700928    -13.545598921
C    8.318571559    -1.414149928    -15.957215022
H    6.607719090    -2.071964472    -15.023495855
H    8.737318509    -0.767549840    -13.412567385
H    7.177354654    -1.327705884    -12.775133914
H    8.378587895    -2.515211051    -13.367805983
H    9.027776106    -0.577862957    -15.849180757
H    8.891284752    -2.351852821    -15.997485550
H    7.799466432    -1.279897922    -16.922412858
