17
-1911.74056
S    7.730835762    -21.422126689    3.246310863
O    7.118899325    -20.983030750    2.032679717
O    7.044461249    -21.572604381    4.491217321
O    8.521117837    -22.834141690    2.971270873
O    9.043652729    -20.466385915    3.494971965
H    8.751679126    -23.360507718    3.752285572
H    9.375853294    -19.967555456    2.731800882
N    10.231306532    -22.185768785    8.354382690
C    9.823804542    -21.206416834    7.326231827
C    9.147939592    -23.149850345    8.638012358
H    11.072317131    -22.678621575    8.058455887
H    8.914504502    -20.677164228    7.658782168
H    10.619928604    -20.451218827    7.222644294
H    9.618842373    -21.638369003    6.336511764
H    8.262896732    -22.604027590    9.007473620
H    8.836540293    -23.755812098    7.775233851
H    9.477990252    -23.822272071    9.447181715
