17
-1911.76260
S    15.304095357    -20.587668505    18.165618640
O    14.795390428    -20.932134472    16.875293684
O    14.527576555    -19.898511124    19.152729441
O    15.910452602    -21.920104519    18.896539372
O    16.700049135    -19.769730995    17.914385308
H    15.842259739    -21.955665840    19.866129298
H    17.094369935    -19.832553311    17.028458977
N    11.740060142    -18.334756013    18.745895810
C    11.948984651    -17.088452163    17.979969149
C    11.072427084    -19.362612831    17.918851396
H    12.638984163    -18.694897602    19.082919961
H    10.976604955    -16.695783726    17.642647661
H    12.392302552    -16.337519252    18.655080412
H    12.602870917    -17.197659307    17.102379391
H    10.062977610    -19.016073752    17.647302025
H    11.611608231    -19.623803670    16.995437536
H    10.957916111    -20.277101853    18.523782361
