17
-1911.97824
S    28.804216968    -22.851190875    11.308750640
O    29.963784179    -22.350643578    10.636330103
O    27.696145703    -21.991897123    11.635042260
O    28.174093583    -24.105925480    10.449300165
O    29.231905326    -23.649128708    12.644188841
H    27.239866001    -24.298344711    10.622914508
H    29.473266287    -23.106830037    13.470049416
N    29.833973623    -22.144852098    14.936035156
C    30.937565147    -22.875863489    15.597123636
C    28.586942245    -22.208262088    15.729578481
H    30.099524632    -21.171115430    14.773406054
H    30.735087592    -23.960985720    15.546436969
H    31.877372883    -22.691501523    15.050146816
H    31.090750071    -22.607460563    16.652677288
H    28.269584716    -23.259498203    15.837779564
H    28.668015410    -21.770003572    16.734515187
H    27.786944025    -21.677971485    15.180428878
