17
-1912.01157
S    25.314221967    -21.957354330    1.325652320
O    25.383360346    -21.186222908    0.122105063
O    25.626644935    -21.373348688    2.609668470
O    23.799170882    -22.584879932    1.477800512
O    26.169330266    -23.310151095    1.184875780
H    23.488672689    -22.698304727    2.388319997
H    27.105883313    -23.321138590    1.622909516
N    28.626826002    -23.231578804    2.402190905
C    28.605669080    -22.061942674    3.309363408
C    29.676195556    -23.103582889    1.365934972
H    28.759941453    -24.091595414    2.937733514
H    28.524980211    -21.124827484    2.731356782
H    27.690679122    -22.113226469    3.934036207
H    29.482679461    -21.988861953    3.965843742
H    29.471997315    -22.217945470    0.738352051
H    30.695438694    -23.008727075    1.768046527
H    29.640320499    -23.987301434    0.706133224
