17
-1912.02329
S    27.005361223    -21.405851005    13.074447329
O    26.677583007    -21.770288346    11.725237900
O    26.691003432    -20.117693536    13.615280717
O    26.566318454    -22.557212087    14.101704400
O    28.659032109    -21.605465083    13.191468030
H    27.131243381    -22.645743683    14.967777135
H    29.111679934    -21.865043750    12.379775138
N    28.490796208    -22.543267704    16.015388614
C    28.842519377    -23.885396053    16.524402257
C    28.287671639    -21.569225021    17.108517248
H    29.205762855    -22.204950106    15.359636660
H    28.097826701    -24.219401224    17.265840424
H    28.810504693    -24.600873782    15.683075580
H    29.837274125    -23.940221184    16.990907503
H    27.535414787    -21.945196356    17.820796018
H    29.203489302    -21.330024098    17.667928025
H    27.889681733    -20.631329025    16.675798812
