17
-1912.03848
S    28.478782103    -23.264148551    8.437877732
O    27.888843029    -24.562813073    8.289142844
O    29.568124078    -22.806996347    7.621563723
O    27.279464529    -22.139124253    8.242684225
O    28.816484767    -23.015524773    9.989146416
H    27.537192203    -21.323940905    7.791299196
H    28.135863615    -23.350454125    10.683565778
N    26.837778080    -23.782188504    11.769162015
C    26.910929350    -22.794186085    12.867710538
C    27.059695205    -25.161577337    12.254469515
H    25.935714922    -23.716620253    11.290658322
H    27.885701305    -22.872096601    13.378886505
H    26.850451399    -21.780129668    12.433890604
H    26.118301844    -22.898603013    13.622492854
H    28.059306762    -25.239704318    12.714657911
H    26.314852452    -25.504783221    12.986711420
H    27.040986182    -25.849286881    11.388183989
