17
-1912.04682
S    5.753851151    -19.968601298    22.687553303
O    6.514961289    -20.151543319    21.481543640
O    4.791523997    -18.907289448    22.815750651
O    5.039078103    -21.342477989    23.106529435
O    6.872949159    -19.839378556    23.890590491
H    4.008085769    -21.320816081    23.233182740
H    7.768334766    -20.125811237    23.654621689
N    2.314347496    -21.123701569    23.281528316
C    1.694938157    -22.467083922    23.259407892
C    1.956473060    -20.336776215    22.079508778
H    2.039398963    -20.616610343    24.126286258
H    2.122309433    -23.055081662    22.428354297
H    1.940181982    -22.996430808    24.195483603
H    0.601305110    -22.454873708    23.143281001
H    2.330026584    -20.843556262    21.174539865
H    0.878192343    -20.166559273    21.959051620
H    2.462155774    -19.349477538    22.138573950
