17
-1911.73381
S    28.013359683    -22.852029888    25.727976370
O    29.289460112    -22.361227471    26.142357924
O    27.677856237    -23.193747875    24.382793729
O    27.597737359    -24.125401919    26.675106471
O    26.891442795    -21.784188597    26.286489707
H    26.822008033    -24.643647831    26.402069468
H    27.178017639    -21.178147787    26.987112572
N    23.312335492    -23.924210237    27.472130591
C    23.773158362    -23.273223752    26.227965126
C    24.310983584    -23.792921299    28.553722083
H    22.423067718    -23.524380787    27.770159763
H    24.595359171    -23.866254156    25.797108881
H    22.953415738    -23.276973131    25.491680424
H    24.125696439    -22.237371310    26.352196862
H    25.267767227    -24.237868518    28.234199809
H    24.503286118    -22.758713332    28.874542963
H    23.957516969    -24.369892485    29.424854600
