17
-1912.06302
S    12.666923788    3.541512069    -20.842706003
O    13.891244466    3.708506964    -21.574232612
O    11.511825221    2.899016660    -21.406250146
O    12.960809010    2.907331175    -19.398177002
O    12.214309194    5.065658343    -20.383799005
H    12.141059022    2.635052459    -18.827775371
H    12.876596819    5.758754655    -20.509139130
N    10.674016143    2.248105086    -17.999808181
C    10.673434868    0.777501428    -17.827349909
C    9.570569644    2.687052695    -18.883951379
H    10.605568579    2.711673007    -17.092602329
H    10.978439536    0.302286694    -18.777767385
H    11.414164736    0.495232885    -17.061526057
H    9.697352376    0.361018394    -17.537227108
H    9.712102040    2.259347414    -19.898262470
H    8.570300826    2.406154538    -18.528956178
H    9.608403175    3.784974346    -18.994418853
