17
-1912.05237
S    28.439460423    -24.161116434    26.294174879
O    28.819500410    -25.490448100    25.913048186
O    28.370999730    -23.082599864    25.345899274
O    27.057769295    -24.212664264    27.117631229
O    29.440048460    -23.708374771    27.525734528
H    26.355738849    -23.475344094    26.934469190
H    29.517504762    -24.335121268    28.257857056
N    25.239112605    -22.213189693    26.592644906
C    23.968069261    -22.851214316    26.181915442
C    25.824698548    -21.409206586    25.496108437
H    25.088633548    -21.630307810    27.418094947
H    24.122373195    -23.445489614    25.265115787
H    23.647290987    -23.548329343    26.975364145
H    23.152049569    -22.139016565    25.992274705
H    26.174481819    -22.081138703    24.688114171
H    25.139789585    -20.668696790    25.063926192
H    26.726584002    -20.887947898    25.864144236
