17
-1912.05965
S    4.361748794    -11.495310749    -11.254561151
O    3.943660451    -12.866657739    -11.198458539
O    3.625571068    -10.487471426    -11.960991990
O    4.477758718    -10.961800314    -9.684102119
O    5.923847020    -11.429638360    -11.636620543
H    4.192690130    -10.054096969    -9.519281616
H    6.541645524    -11.994823824    -11.034818125
N    6.950703662    -12.916999320    -9.582207347
C    8.355732429    -12.738064195    -9.160036346
C    6.627008320    -14.340375439    -9.823414354
H    6.312775255    -12.521601393    -8.881688692
H    9.032556277    -13.103806135    -9.950464396
H    8.557794575    -11.661547931    -9.024110103
H    8.609226125    -13.259265091    -8.224911427
H    7.272024453    -14.743594443    -10.620463159
H    6.729786319    -14.980488439    -8.936229389
H    5.577702655    -14.412074030    -10.181719562
