17
-1911.71641
S    28.514441045    -21.787059816    5.708511487
O    28.863200545    -22.945666533    4.950480929
O    28.013534630    -20.578406547    5.134556738
O    27.465740894    -22.197495832    6.908343750
O    29.812360210    -21.445572921    6.654044433
H    26.862277269    -21.496234513    7.206530325
H    30.548897299    -22.077675024    6.626783750
N    28.440539099    -24.367190177    9.224832253
C    29.809155950    -24.060166980    9.688982965
C    27.495194360    -24.424875735    10.357365168
H    28.135809575    -23.677516947    8.535909667
H    30.152308522    -24.862713504    10.363270972
H    30.483864762    -24.054528801    8.818085726
H    29.907101279    -23.100101442    10.216889927
H    27.768409873    -25.269940704    11.012428307
H    27.459034962    -23.511426723    10.968350296
H    26.484475165    -24.627061184    9.966828925
