17
-1912.00612
S    5.212397815    -8.471048382    -14.841974521
O    5.495287108    -9.489092553    -15.808780101
O    5.120234551    -7.088406672    -15.220103028
O    3.730496867    -8.824704264    -14.148196274
O    6.114077914    -8.666004015    -13.537487584
H    3.007448561    -8.227956001    -14.369287381
H    5.753958778    -9.311933723    -12.791340431
N    4.785322140    -10.195819449    -11.776069729
C    5.036367280    -9.802508312    -10.373329469
C    4.969470394    -11.647989218    -11.984603183
H    3.848269520    -9.904632782    -12.078074709
H    6.017615331    -10.180006203    -10.040242200
H    5.073818495    -8.699702644    -10.316384098
H    4.274331914    -10.161926000    -9.666587054
H    6.031016308    -11.912777941    -11.840875323
H    4.364882738    -12.275280559    -11.314198777
H    4.705000658    -11.900650657    -13.027862071
