17
-1912.06909
S    10.361046679    0.768242966    -24.940784940
O    11.538920043    -0.048511061    -24.823608945
O    9.714840528    1.013946290    -26.199574370
O    9.195752755    0.118774678    -23.965744487
O    10.624414870    2.150973042    -24.171263063
H    8.283400350    0.238479748    -24.263253846
H    11.390950543    2.163411825    -23.471664379
N    12.679293143    2.045650928    -22.345995969
C    13.915150843    2.370701064    -23.095035631
C    12.695344877    0.642936576    -21.871075728
H    12.561568006    2.685877364    -21.559613516
H    13.961917649    1.748377230    -24.008926586
H    13.882439156    3.425475932    -23.412872837
H    14.840342623    2.205095849    -22.525092149
H    12.840078333    -0.042181448    -22.732842487
H    13.476324968    0.430716684    -21.128881774
H    11.713691529    0.401598192    -21.429054207
