17
-1911.78708
S    7.982453497    1.960572269    -7.880478417
O    9.079025270    1.396347612    -8.601889130
O    6.775757778    2.423031654    -8.498292139
O    7.517026036    0.926286583    -6.696615285
O    8.603308796    3.157959573    -6.949548648
H    6.578015069    0.951224147    -6.447216371
H    9.568505124    3.166742016    -6.839930842
N    3.539282722    3.622100173    -10.752377806
C    4.662964583    2.669773137    -10.626765311
C    2.238465328    2.944707315    -10.569628408
H    3.644671088    4.370400023    -10.067710440
H    4.630773311    1.952655455    -11.460498740
H    5.615508187    3.224296642    -10.697833792
H    4.683953035    2.110657884    -9.678317426
H    2.089278760    2.229662915    -11.396484498
H    2.138470211    2.398694662    -9.620362815
H    1.432252252    3.693620680    -10.631892921
