17
-1912.05689
S    -4.219136586    -15.088358520    19.902956960
O    -3.033362743    -15.895249154    19.988955364
O    -5.058773407    -15.107799348    18.730882445
O    -5.166236435    -15.338066590    21.175338392
O    -3.714759999    -13.547819889    20.190817753
H    -6.121175667    -15.699158273    20.958816820
H    -2.826565697    -13.467442911    20.572890927
N    -7.374779037    -16.365809303    20.013986527
C    -8.683139448    -15.778838222    20.369795102
C    -7.379312447    -17.838268727    20.149820007
H    -7.097724320    -16.090092333    19.059743967
H    -8.907899427    -15.982890977    21.429884285
H    -8.630831823    -14.682888494    20.244488512
H    -9.520113414    -16.154462060    19.762471800
H    -7.625350022    -18.120727769    21.186700853
H    -8.086351502    -18.345841404    19.477381412
H    -6.364959754    -18.220251619    19.934570166
