17
-1911.99106
S    8.242990480    -15.383651210    -5.746568723
O    7.250374019    -15.840687912    -6.671367058
O    8.367242946    -13.990232548    -5.418448895
O    7.985356480    -16.149734133    -4.288165311
O    9.667950374    -16.033211297    -6.079988437
H    7.651164992    -15.600747106    -3.570908630
H    9.951111740    -16.886391952    -5.560089887
N    10.320388146    -18.275269162    -4.645390699
C    11.041584116    -17.807261055    -3.440750477
C    11.159492405    -19.171084442    -5.470373669
H    9.450567797    -18.743183255    -4.376220103
H    11.912917181    -17.200554883    -3.741920837
H    10.369112178    -17.154981365    -2.854628227
H    11.396503303    -18.617220438    -2.787437182
H    12.007065783    -18.599635641    -5.888150622
H    11.566008138    -20.034979523    -4.924421176
H    10.563296699    -19.543725318    -6.321439866
