17
-1911.72793
S    5.910771250    -6.738198078    -17.642448528
O    6.508065885    -7.778894496    -18.417425231
O    5.177743791    -5.640098533    -18.192205457
O    4.946737009    -7.407819587    -16.496235936
O    7.090016593    -6.147511672    -16.664881564
H    4.167264498    -6.894564545    -16.227438715
H    7.842769894    -6.735048040    -16.486932407
N    6.724556161    -1.722337277    -16.263437993
C    7.910346186    -2.517905908    -16.642735640
C    5.536366965    -2.581211056    -16.082045081
H    6.913261677    -1.195608361    -15.412264716
H    7.670843311    -3.146376780    -17.517908214
H    8.709169582    -1.821346160    -16.946627080
H    8.291455292    -3.174961440    -15.847780528
H    5.333032480    -3.129160718    -17.022133942
H    5.625002735    -3.316589950    -15.270201528
H    4.664767304    -1.936438934    -15.887331340
