17
-1912.02727
S    29.994047776    -24.048012099    17.435468873
O    29.937817051    -25.449756982    17.139747789
O    29.688777177    -23.033917850    16.465432197
O    28.983223438    -23.757689496    18.714221381
O    31.396459448    -23.711164844    18.142120765
H    28.580790763    -22.879735337    18.742560208
H    31.778651061    -24.391672404    18.810739561
N    32.545615949    -25.457059395    19.952696949
C    31.649939878    -25.704211756    21.103663031
C    33.752581060    -24.699186285    20.352927662
H    32.809181983    -26.342254325    19.513408145
H    31.297953712    -24.743191358    21.515914896
H    30.758908660    -26.256512363    20.753489973
H    32.114852646    -26.278571727    21.917943518
H    33.454579333    -23.726178325    20.780935004
H    34.389556577    -25.215979541    21.084480768
H    34.354209205    -24.486695877    19.451290144
