17
-1911.76460
S    6.799605462    -6.092871472    -13.368461833
O    7.404054890    -7.189634991    -14.060090042
O    6.367780078    -4.888592344    -14.005874533
O    5.511538949    -6.648077160    -12.516334651
O    7.795448778    -5.722610492    -12.120288790
H    4.766026470    -6.035938980    -12.405303009
H    8.419254430    -6.417040704    -11.845335899
N    6.507769497    -11.521403422    -13.540619080
C    7.202526776    -10.674404646    -14.531774260
C    5.096471851    -11.112699489    -13.380735523
H    6.559518730    -12.501405615    -13.816935578
H    7.209643735    -9.623767163    -14.181190734
H    8.253331837    -10.997214248    -14.599388893
H    6.761176705    -10.692761304    -15.538071093
H    5.057119913    -10.058960765    -13.054633548
H    4.486709026    -11.212919886    -14.290170658
H    4.642590357    -11.720175743    -12.580850334
