17
-1911.73388
S    6.329851414    -3.587464465    -19.411787725
O    7.626383748    -3.811980808    -19.971180115
O    5.389639270    -4.621064722    -19.115563349
O    6.496461333    -2.709228480    -18.032602781
O    5.615253480    -2.452836959    -20.355094800
H    5.820925299    -2.847086510    -17.348044331
H    6.181288506    -2.015896778    -21.013478979
N    9.238837140    -0.389736044    -16.511250705
C    9.773214193    -1.742363077    -16.783889600
C    9.061983036    0.373895875    -17.765532748
H    8.343930893    -0.467286860    -16.027768803
H    10.759020211    -1.657034446    -17.268246023
H    9.923374297    -2.261101351    -15.823591550
H    9.126702299    -2.363782253    -17.424311501
H    10.036134198    0.476493291    -18.270712466
H    8.351123772    -0.077241587    -18.473594311
H    8.714037254    1.388233325    -17.512763730
