17
-1911.71914
S    9.431511036    -17.379970630    21.036866834
O    9.755798130    -18.454736921    20.153524718
O    8.804553177    -16.160321355    20.637043697
O    8.558253690    -17.963709102    22.300928309
O    10.813561284    -17.019997113    21.850546069
H    8.080900328    -17.306733953    22.832486101
H    11.524605941    -17.678971533    21.810600797
N    4.769652191    -20.078924180    20.413552572
C    5.053327323    -19.127723964    21.506976863
C    5.324820982    -21.417209348    20.700959479
H    3.765930560    -20.139883059    20.251087900
H    6.143229467    -19.077500954    21.678321909
H    4.724929027    -18.124611690    21.186190286
H    4.564528503    -19.370732372    22.461088714
H    6.427496209    -21.352008515    20.711366181
H    4.996135189    -21.854825987    21.654319605
H    5.046566547    -22.101553770    19.882735550
