17
-1912.00554
S    12.077685785    2.510107065    -22.854738956
O    12.668116957    1.227578024    -23.091440379
O    11.699513103    3.376949608    -23.936822060
O    10.673196606    2.277621720    -21.988077168
O    12.907006025    3.312635407    -21.744487559
H    9.866334368    2.612624537    -22.396145436
H    12.686012591    3.153064521    -20.746083101
N    12.293511135    2.986467815    -19.085297848
C    12.379749587    1.553319072    -18.725659551
C    10.910687060    3.497085128    -18.947289313
H    12.934677987    3.536706885    -18.511469978
H    11.771755713    0.958903617    -19.433056922
H    13.425123524    1.215050436    -18.826351224
H    12.037740101    1.324761020    -17.706447891
H    10.229501561    2.898462714    -19.581548206
H    10.526069206    3.479482788    -17.918307212
H    10.876247321    4.536365651    -19.316637300
