17
-1911.78606
S    9.089011414    0.784878365    -17.864078941
O    9.938511515    -0.348061874    -18.099448251
O    7.683945609    0.752456482    -18.123614525
O    9.294527492    1.289101027    -16.321463799
O    9.776060391    2.050405551    -18.641886461
H    8.529896508    1.207952696    -15.725717049
H    10.709561634    1.944670055    -18.893046471
N    8.374645716    -2.530401392    -16.322777818
C    7.201855273    -2.831047213    -17.170818468
C    8.904488983    -3.755505788    -15.690924047
H    9.100249924    -2.072590076    -16.880054349
H    6.381477611    -3.206023041    -16.539161527
H    6.853228009    -1.893944359    -17.641434579
H    7.392363099    -3.565341001    -17.966615917
H    8.140565809    -4.178613331    -15.018086040
H    9.210158257    -4.537686565    -16.401129236
H    9.776416118    -3.485420148    -15.073257052
