17
-1911.73601
S    32.636110517    -21.500022900    20.659656813
O    31.947884233    -22.051108856    21.786693286
O    32.398825354    -21.906482432    19.310429227
O    32.476035816    -19.867711889    20.685991200
O    34.236453559    -21.610938263    20.994500179
H    32.470181957    -19.416764861    19.825396968
H    34.472649654    -21.794284449    21.919605177
N    27.846412333    -21.987862666    22.436890646
C    28.646803694    -23.115352621    21.915944284
C    28.511448176    -20.694545706    22.174186061
H    26.915336553    -21.995813584    22.025348168
H    29.671576403    -23.065420318    22.333148395
H    28.195139460    -24.056103972    22.267757853
H    28.731167005    -23.148043588    20.820893695
H    29.541986755    -20.724451119    22.573445255
H    28.563434121    -20.416147291    21.112336892
H    27.971258514    -19.906855497    22.723307624
