17
-1912.03963
S    12.879791576    4.155357489    -19.383986755
O    13.563742772    3.777936270    -20.589551603
O    11.753283098    5.042013349    -19.386491375
O    12.547138449    2.857283782    -18.503140880
O    14.047554884    4.827303533    -18.410733555
H    12.256762037    3.008091628    -17.521531316
H    14.951980980    4.777163000    -18.746196556
N    11.937340588    3.290278786    -15.860790608
C    10.472453211    3.374330136    -15.668211559
C    12.614278021    4.550704529    -15.479743770
H    12.320771189    2.508568595    -15.325602165
H    10.059996939    4.184587519    -16.297363590
H    10.010716309    2.431188693    -16.007705964
H    10.166204704    3.558881802    -14.628676446
H    12.139174821    5.410078391    -15.985388146
H    12.618254971    4.747337264    -14.399203353
H    13.660804551    4.512171209    -15.838241632
