17
-1911.75123
S    4.566387462    -3.152562555    -15.821487800
O    4.787446917    -4.563970054    -15.898214552
O    3.305788917    -2.544577350    -15.533317807
O    5.644321603    -2.500080309    -14.767906899
O    5.157315625    -2.526804904    -17.218448864
H    5.332880665    -1.738111237    -14.250551142
H    5.718710064    -3.112639866    -17.751874682
N    5.819040863    -5.822955963    -11.988407755
C    6.593498633    -4.564705064    -12.004289341
C    5.999709558    -6.577866333    -13.245649492
H    6.095461065    -6.394681260    -11.191549361
H    6.208522687    -3.915913068    -12.811402877
H    6.435461943    -4.038255978    -11.050018309
H    7.673789729    -4.695118839    -12.161779956
H    5.544370033    -6.007958660    -14.079740800
H    7.046009833    -6.786902656    -13.506442215
H    5.456233372    -7.532628043    -13.173893536
