17
-1911.74823
S    3.374000022    -0.929203076    -0.953684186
O    4.802451025    -0.951462744    -1.024456258
O    2.557430360    -0.066062569    -1.749191525
O    2.800946486    -2.446783296    -1.194248733
O    2.990374455    -0.746825533    0.629226462
H    1.949041036    -2.519902903    -1.656107717
H    3.712769646    -0.877940893    1.266829435
N    5.939646807    -1.472262040    -5.847743022
C    6.819121333    -2.095555321    -4.835998883
C    4.564131539    -1.299924197    -5.334646967
H    6.320168480    -0.570846448    -6.134336806
H    6.453456303    -3.111369475    -4.613351749
H    7.831083349    -2.195793329    -5.260955190
H    6.888884740    -1.543155886    -3.886077867
H    4.155938192    -2.281025700    -5.043922804
H    4.480197149    -0.620134899    -4.473034590
H    3.933396198    -0.910183775    -6.150181155
