17
-1912.06368
S    6.837441721    -13.883297621    -7.059986747
O    7.641933322    -14.521173344    -8.065080059
O    6.733458026    -12.455797482    -6.940590409
O    5.286084738    -14.428973765    -7.242596543
O    7.181493956    -14.529108439    -5.632788900
H    4.587312524    -13.802841199    -7.011023065
H    7.476780984    -15.521693875    -5.612765289
N    7.900964493    -17.181188823    -5.630419227
C    9.343599688    -17.248338916    -5.304806468
C    7.630071386    -17.695673462    -6.992059244
H    7.356955050    -17.700236328    -4.939234734
H    9.925898839    -16.711267107    -6.075167431
H    9.517137705    -16.734123588    -4.343395939
H    9.737902892    -18.272189923    -5.229610938
H    8.136528415    -17.051138208    -7.739811714
H    7.951793164    -18.733310582    -7.153210736
H    6.547577283    -17.629842780    -7.196806379
