17
-1912.03418
S    -6.347373111    -13.322754008    20.250825743
O    -7.384563031    -12.600251535    19.575985242
O    -4.957317441    -13.000362676    20.082946371
O    -6.633035250    -13.204046711    21.884786331
O    -6.582757739    -14.899902407    20.085295392
H    -5.870316666    -12.980790944    22.431986582
H    -7.454351747    -15.298721455    20.476808984
N    -8.784977878    -16.005111717    21.287950854
C    -9.800519150    -16.390410194    20.283381683
C    -9.321149242    -15.029700842    22.263693464
H    -8.434639530    -16.833466328    21.773861492
H    -10.146798583    -15.492905820    19.739833367
H    -9.332811749    -17.061108469    19.541951246
H    -10.680064303    -16.896587969    20.706268258
H    -9.767922787    -14.167332603    21.738272668
H    -10.076853569    -15.446718230    22.942780269
H    -8.480366588    -14.634101485    22.866310917
