17
-1912.03655
S    11.957845517    -21.722129210    7.011073993
O    12.324716694    -22.299535466    5.746298807
O    12.741266290    -20.678144905    7.613439384
O    10.431649958    -21.108417563    6.911678045
O    11.723246360    -22.919470995    8.055453685
H    10.287098071    -20.284775449    7.404086074
H    12.103436836    -23.848107749    7.807729105
N    13.060674894    -25.245205772    7.425962238
C    13.182016769    -25.325863564    5.952843977
C    12.414781311    -26.451210504    7.991516894
H    13.983841923    -25.113990358    7.847559873
H    12.202223815    -25.542505289    5.496696887
H    13.486553408    -24.330263574    5.565899111
H    13.902161628    -26.076553857    5.602500017
H    11.474176479    -26.667491253    7.457887206
H    13.045102995    -27.351770097    7.953161244
H    12.153304973    -26.251386241    9.045894169
