17
-1912.02887
S    6.550512355    -23.414170805    5.261365956
O    6.413534787    -24.840073023    5.221817547
O    5.949902081    -22.556969899    4.277371497
O    5.943812556    -22.891802601    6.719708312
O    8.088096388    -23.019217134    5.487694124
H    5.378514922    -22.110505837    6.683320862
H    8.526030553    -23.304228484    6.381056182
N    9.159701573    -23.714037229    7.926044481
C    8.489515589    -24.944859059    8.402846927
C    8.848081664    -22.553753328    8.791458740
H    10.169522926    -23.858426423    7.875248640
H    7.394270030    -24.791757821    8.428264391
H    8.682227042    -25.761441718    7.684043132
H    8.812698726    -25.273553466    9.400266559
H    7.755748632    -22.380166502    8.794793343
H    9.181142891    -22.665807726    9.832574872
H    9.322479033    -21.651866248    8.367700980
