17
-1912.03791
S    5.322856210    -3.400421644    -14.348292593
O    6.691074293    -3.822812172    -14.409482708
O    4.690596431    -2.665467595    -15.407601727
O    4.393085263    -4.761041036    -14.140941172
O    5.045314224    -2.691994885    -12.933382826
H    3.590556165    -4.808255372    -14.676178052
H    5.374450676    -3.189796476    -12.093977049
N    5.845713927    -4.265640870    -10.791427443
C    5.494547533    -5.622493709    -11.267193295
C    5.022789800    -3.864852216    -9.628758339
H    6.839329938    -4.219869633    -10.557404925
H    4.471545871    -5.613618974    -11.686699709
H    6.174652827    -5.906446400    -12.092025891
H    5.545772954    -6.399992286    -10.493418974
H    3.979536928    -3.712295533    -9.957222102
H    5.018268351    -4.595311292    -8.806583435
H    5.388324448    -2.901165711    -9.235935378
