17
-1912.03670
S    6.720805128    4.270841920    -9.460125282
O    7.168650549    3.430536581    -8.385129121
O    7.574505612    5.247211918    -10.069689596
O    5.985104566    3.400314109    -10.589430210
O    5.388946772    5.070978748    -8.865189220
H    5.291503399    3.880602987    -11.185511950
H    5.146197847    4.871442505    -7.952425786
N    4.031366107    4.764986175    -11.983243542
C    4.069195270    4.468554790    -13.432512468
C    4.263726430    6.202517026    -11.717115473
H    3.134212874    4.475957272    -11.587042540
H    5.097059735    4.614680164    -13.809344860
H    3.804962921    3.410450296    -13.597223014
H    3.392698773    5.092877755    -14.034466365
H    5.268146013    6.493050195    -12.074125074
H    3.527656730    6.870605002    -12.184273647
H    4.246804716    6.372284742    -10.622487934
