17
-1911.97633
S    30.496737661    -24.968047644    17.021528198
O    29.592803780    -26.081752319    16.918694499
O    31.011290729    -24.325993547    15.851236822
O    29.962769701    -23.880095452    18.068139843
O    31.767092620    -25.556709424    17.924797194
H    30.394374858    -23.809661289    19.001938474
H    31.857133081    -26.515587454    17.955421109
N    30.856513082    -23.598681344    20.662422473
C    32.117742224    -24.327624805    20.920945170
C    29.727979822    -24.168698636    21.432683600
H    30.967899435    -22.607014641    20.881911190
H    32.073634455    -25.315332874    20.425830816
H    32.961571919    -23.779720075    20.467820121
H    32.335510478    -24.481730274    21.987096469
H    29.535128267    -25.202605278    21.097325291
H    29.887388078    -24.185773676    22.520256811
H    28.817154881    -23.580733126    21.221673788
