17
-1912.03846
S    8.897652206    -16.886720458    -5.426943847
O    9.418917241    -18.145635880    -5.884674143
O    9.314844875    -15.642375636    -6.011365652
O    7.254415112    -16.903900739    -5.537812726
O    9.059458444    -16.815452164    -3.828234826
H    6.831228621    -16.031541486    -5.542782186
H    9.785987559    -17.403352576    -3.394485211
N    11.168998264    -18.302949220    -2.842397905
C    11.563640750    -19.188256802    -3.961435828
C    10.745903365    -19.080934406    -1.656815361
H    11.938793407    -17.678310605    -2.594454947
H    10.673436323    -19.729105074    -4.338252236
H    11.925197600    -18.574617208    -4.806053897
H    12.336862739    -19.923830682    -3.704948903
H    9.888941069    -19.724890266    -1.920144959
H    11.536599644    -19.719074415    -1.235322429
H    10.406831375    -18.383112886    -0.871937515
