17
-1911.76506
S    10.207764865    -24.121528759    7.462355451
O    9.279558884    -24.972569725    8.138029280
O    11.124868175    -24.593555399    6.469337241
O    9.404135914    -22.858949843    6.799281090
O    11.034903712    -23.315943278    8.627570203
H    9.874866748    -22.342053322    6.124186190
H    10.668673118    -23.374281716    9.527595836
N    11.009632462    -27.203154754    4.547756750
C    12.164769079    -27.963956576    5.070482617
C    9.735116924    -27.886527037    4.853299415
H    11.009817462    -26.262029669    4.953379243
H    12.158872730    -28.985022227    4.660458149
H    13.086223893    -27.470370744    4.717586612
H    12.205440033    -28.026196794    6.167854200
H    9.751414912    -28.905556299    4.435105561
H    9.499229632    -27.956073705    5.925920224
H    8.920625163    -27.338650006    4.350896404
