17
-1912.03055
S    -7.808008171    -14.586227883    21.119468223
O    -6.574009401    -14.968678722    21.747956244
O    -7.842547585    -13.880144743    19.872829833
O    -8.821357118    -15.826737365    21.075537572
O    -8.604455854    -13.658759413    22.247809926
H    -9.829345184    -15.624785724    20.943778084
H    -8.163761754    -13.563301704    23.101437372
N    -11.507065512    -15.323853057    20.958420107
C    -12.087545369    -15.794659106    19.681492825
C    -11.740351247    -13.877528379    21.168608906
H    -11.890159384    -15.860089800    21.739983978
H    -11.665039847    -15.215458817    18.841025418
H    -11.801019786    -16.849747553    19.527856505
H    -13.183315820    -15.718894332    19.633057074
H    -11.435474047    -13.303607639    20.276459888
H    -12.784259730    -13.623700303    21.398735012
H    -11.097414036    -13.534254617    22.003481899
