17
-1912.06973
S    4.728224382    -21.247599420    21.620970624
O    5.701019207    -21.986779213    20.869127306
O    4.027288193    -20.110625722    21.078952560
O    3.632302810    -22.229212518    22.269716108
O    5.509337798    -20.748801999    22.987072099
H    2.722260117    -21.790158137    22.502092077
H    6.385304649    -21.129771502    23.139764187
N    1.558034028    -20.481554045    22.570366870
C    1.418304476    -19.937110975    23.937674648
C    0.247827492    -20.831075580    21.983023960
H    2.054129357    -19.808579536    21.964324843
H    0.876155628    -20.650523387    24.579255589
H    2.426620575    -19.799165166    24.369283873
H    0.894182621    -18.970452882    23.978907261
H    -0.270001865    -21.569527748    22.616430669
H    -0.420993240    -19.967670034    21.845485628
H    0.415958717    -21.296717644    20.995452851
