17
-1912.03147
S    9.626480734    -18.428326522    -0.619925918
O    10.271524599    -19.518168286    -1.290405046
O    8.828082102    -17.464879192    -1.325919734
O    8.607296943    -19.075974528    0.525840401
O    10.657265538    -17.695995192    0.363594027
H    7.699541996    -18.749384151    0.511888116
H    10.979796131    -18.217631488    1.199498605
N    11.410407932    -19.088739881    2.603999782
C    11.948514387    -20.404144159    2.190424588
C    10.162260373    -19.233299907    3.387212706
H    12.108998923    -18.573125007    3.141900585
H    11.207615229    -20.931161358    1.560897119
H    12.846778526    -20.246021728    1.568385068
H    12.214149042    -21.063411319    3.028565085
H    9.392591784    -19.733935081    2.767383900
H    10.280261894    -19.804249540    4.318369913
H    9.776445134    -18.230123679    3.636773115
