17
-1911.75612
S    9.241551721    -16.135210778    -4.432682905
O    10.042290732    -17.181103749    -4.996953859
O    8.362919419    -15.299771388    -5.186875791
O    8.362428716    -16.764809233    -3.202258263
O    10.269800640    -15.203832665    -3.559334068
H    7.464489779    -16.418018473    -3.074498274
H    11.105942237    -15.619117336    -3.290658651
N    11.011200621    -20.081822485    -4.015602245
C    12.244383241    -20.454796771    -4.736789184
C    11.241547905    -20.012990896    -2.557750996
H    10.652700189    -19.186295393    -4.359443469
H    12.568619489    -21.457312864    -4.414682950
H    12.013229656    -20.510921283    -5.814167703
H    13.082489510    -19.756055487    -4.599402844
H    11.426665993    -21.030636457    -2.175271930
H    12.082308836    -19.372266353    -2.256448935
H    10.324603187    -19.642518966    -2.070228171
