17
-1911.70572
S    3.708529788    -8.346798562    -13.049737532
O    4.270161556    -9.321021640    -13.931257403
O    3.008757907    -7.176894897    -13.475403784
O    2.730992391    -9.121023873    -11.977893907
O    4.901501659    -7.930653012    -11.999505183
H    1.946935478    -8.639826385    -11.669492225
H    5.525543552    -8.636683289    -11.767926368
N    6.279428677    -12.043664368    -11.052009580
C    7.266876707    -11.525611346    -10.085328404
C    4.893438024    -11.769230863    -10.622329762
H    6.441782107    -11.650525145    -11.978122577
H    7.041946378    -11.917779689    -9.079317747
H    8.262088385    -11.911901975    -10.367884801
H    7.319630081    -10.429743340    -10.023174743
H    4.669893730    -12.363721205    -9.720881750
H    4.676782392    -10.714524455    -10.400865681
H    4.202175765    -12.108892338    -11.413810215
