14
-2771.09553
S    -0.170450113    -3.097308712    -0.393219048
O    1.014307676    -3.375761987    -1.154452408
O    -1.378603119    -2.620319886    -0.975896566
O    -0.531643377    -4.384456618    0.541024404
O    0.300939942    -2.064769956    0.788546536
H    -1.352486661    -4.335536976    1.061809416
H    1.249617412    -1.867582905    0.860958261
S    3.334520483    -5.506144633    -3.053031616
O    4.626257996    -5.698613547    -3.648909122
O    2.669404467    -6.533241781    -2.312873033
O    3.369107572    -4.136476876    -2.189930894
O    2.346818557    -5.025671412    -4.285080426
H    2.518367681    -3.839544051    -1.786707794
H    2.788754067    -4.747659365    -5.099600921
