14
-2771.45397
S    10.220576669    4.836619895    -14.483726674
O    10.865104124    3.591476909    -14.118733860
O    8.800894766    4.986012276    -14.426712369
O    10.854961610    6.024171081    -13.549965217
O    10.776110821    5.277296050    -15.924085871
H    10.371262882    6.865741869    -13.530479395
H    11.345568666    4.603151925    -16.419117368
S    12.809006276    2.015074143    -16.530652234
O    13.093329980    0.947875308    -17.436688927
O    12.155331862    3.233536486    -16.963874325
O    12.019874998    1.458534802    -15.246472666
O    14.233938610    2.447610584    -15.842890289
H    11.526610631    2.151382217    -14.698260703
H    14.908734808    1.756395644    -15.759614399
