14
-2771.20389
S    -10.179241864    0.128423161    -1.334183286
O    -9.600460383    -0.945777232    -0.586414246
O    -9.977842638    0.286723504    -2.736186725
O    -11.730894275    0.327220123    -0.973116288
O    -9.571099267    1.503639113    -0.568985992
H    -11.998312977    1.061862002    -0.343247890
H    -8.980442422    1.338695929    0.181428284
S    -11.943717836    3.846942760    0.524156094
O    -12.225470088    2.429577580    0.609687631
O    -12.906586581    4.797994151    0.074388844
O    -11.432073065    4.346534540    1.996729278
O    -10.567301607    3.981160305    -0.311552187
H    -11.511960427    5.294702878    2.191749946
H    -10.094270974    3.124443054    -0.505587049
