14
-2771.15998
S    -2.448828270    -7.113191960    -14.374979478
O    -3.011929375    -7.918054241    -13.332421996
O    -1.495268682    -7.607591291    -15.311978419
O    -3.677700319    -6.416474627    -15.202614533
O    -1.879935828    -5.765612900    -13.634647237
H    -3.974859541    -6.833611604    -16.066983074
H    -2.128196611    -5.656236879    -12.701066389
S    -6.733507430    -7.110211991    -16.133433678
O    -5.499644054    -7.372011347    -16.846660171
O    -7.939145897    -6.705015479    -16.781446250
O    -7.105905366    -8.438728036    -15.255440607
O    -6.334816745    -6.071589448    -14.952405325
H    -8.048281222    -8.615667830    -15.099981080
H    -5.357923067    -5.984100586    -14.787346351
