14
-2771.45375
S    -13.046893393    5.367370971    -6.414693711
O    -13.806040009    4.782151117    -7.503180573
O    -12.964880947    6.782655673    -6.232110476
O    -13.664650948    4.759830325    -5.023283315
O    -11.589303096    4.699509016    -6.425729740
H    -13.807750810    5.373720964    -4.287495250
H    -11.532885216    3.776141041    -6.839959013
S    -12.724970006    1.620201944    -8.549673723
O    -12.262443828    1.346825261    -9.873943615
O    -11.891149702    2.306042858    -7.583384540
O    -14.148886425    2.361943296    -8.588238523
O    -13.160739051    0.176726137    -7.908099279
H    -14.184080241    3.289470885    -8.183303116
H    -13.464150693    -0.499155502    -8.536466122
