14
-2771.42698
S    2.681967831    -2.275335453    -2.556800889
O    2.711771552    -2.669082544    -3.951355610
O    3.293998730    -1.071020141    -2.093618615
O    1.102731868    -2.211953994    -2.117240992
O    3.166925602    -3.528752376    -1.678475785
H    0.886368222    -1.705021209    -1.319967113
H    3.030269256    -4.444392394    -2.096966358
S    1.949288703    -6.040245507    -4.360055542
O    0.560209469    -6.350169167    -4.355288588
O    2.649855744    -5.718402599    -3.121659096
O    2.787121904    -7.293949759    -4.994871354
O    2.293625909    -4.874365177    -5.409721751
H    3.655225060    -7.477840661    -4.598357419
H    2.479869407    -3.963755746    -5.011988562
