14
-2771.17364
S    -12.823288319    1.014730666    -9.257225670
O    -12.802332550    -0.310531495    -8.671418299
O    -13.183554308    1.260091313    -10.616519581
O    -13.797848690    1.964484162    -8.349021869
O    -11.374980529    1.656337580    -8.907464789
H    -14.342256897    2.617054946    -8.820193225
H    -10.858184617    1.182882838    -8.202689179
S    -10.663488283    -0.160738041    -5.356968481
O    -9.657976501    0.784941479    -4.976444380
O    -11.985000820    -0.162446241    -4.821251075
O    -10.772994339    -0.140638854    -6.989347213
O    -9.998351894    -1.647802556    -5.162864603
H    -11.572918468    -0.572460028    -7.423674264
H    -9.042403653    -1.682134871    -4.998528725
