14
-2771.19125
S    -12.939048808    0.024425867    -12.693242317
O    -12.248770845    -1.036180005    -11.989774183
O    -12.867697890    0.194687666    -14.108621843
O    -14.529199843    -0.052853097    -12.313631047
O    -12.526051419    1.397677745    -11.932407052
H    -15.152628360    0.331540956    -12.951845459
H    -12.021611600    1.269321048    -11.086581914
S    -10.003654562    0.206193754    -8.851638216
O    -10.309535045    1.063839632    -7.747239340
O    -9.549236146    -1.138103352    -8.707848662
O    -11.276683865    0.200051350    -9.873648845
O    -8.953667703    1.050527650    -9.791780796
H    -11.457997560    -0.617822180    -10.430877736
H    -8.771905111    1.965719620    -9.526407098
