14
-2771.18577
S    -7.654323812    -2.782534584    -2.481995773
O    -8.617757056    -3.482733919    -1.659042157
O    -6.554342329    -3.422896490    -3.126702872
O    -8.486456464    -1.977919650    -3.639724207
O    -7.140901181    -1.530051050    -1.586432289
H    -8.009467390    -1.738085265    -4.449720289
H    -7.756301324    -1.258665695    -0.855365324
S    -10.635515494    -0.669461317    0.207766246
O    -11.751861561    -1.462312582    -0.189157579
O    -10.352931949    0.628382098    -0.329018419
O    -10.631656271    -0.486906712    1.836909889
O    -9.283234751    -1.576552196    0.046757418
H    -10.340114065    0.376955551    2.173082490
H    -9.366889796    -2.505313305    -0.330759781
