14
-2771.46739
S    14.639503095    -0.069236418    -18.152712320
O    15.449762882    -0.393053993    -19.307962787
O    14.030825777    1.215078131    -18.003878050
O    13.429770200    -1.173818779    -18.066600406
O    15.469225367    -0.446696331    -16.828633655
H    12.663828032    -0.934328968    -17.521448142
H    16.248343809    -1.078306835    -16.957629146
S    18.260959200    -2.397031779    -18.811162904
O    17.406102299    -2.079826335    -17.685745437
O    19.649456052    -2.053535250    -18.804199623
O    18.206364226    -4.017105044    -19.044691655
O    17.527140977    -1.865822039    -20.134505473
H    19.050222724    -4.467535719    -19.210875394
H    16.685724039    -1.323782967    -19.979134313
