14
-2770.92562
S    -13.276896745    6.013666052    -4.506334408
O    -13.164417385    4.895278892    -5.372157297
O    -14.157770939    7.111413241    -4.740920180
O    -13.575754901    5.504481456    -2.965700823
O    -11.761180788    6.580505381    -4.137105748
H    -14.357840099    5.842724485    -2.508171309
H    -11.412858023    6.341521034    -3.258314840
S    -9.508208319    6.600774698    -7.091269066
O    -9.379062665    5.180224808    -7.044752843
O    -8.645466038    7.424512200    -7.885903505
O    -11.047037285    6.997431989    -7.536034188
O    -9.568765131    7.183356844    -5.572677023
H    -11.142155436    7.699683641    -8.194781531
H    -10.371384784    6.984197253    -5.050948307
