14
-2771.42658
S    1.115971765    -3.177590733    1.129459287
O    1.923465009    -4.093079062    1.928038617
O    1.591625892    -2.680931659    -0.116702462
O    -0.341695796    -3.839530302    0.987200413
O    0.797571758    -1.925186628    2.132861231
H    -0.358053409    -4.849428570    0.940027796
H    0.990912181    -2.068936663    3.075016452
S    1.255395325    -7.366357281    1.002315304
O    1.101794374    -8.772399753    1.205575948
O    0.112820380    -6.476015419    0.934661929
O    2.305407462    -6.736118375    2.037262539
O    2.073456289    -7.182649022    -0.406280739
H    2.292404027    -5.721135327    2.108765650
H    2.380606435    -7.980584707    -0.860179059
