14
-2771.44048
S    -11.346693617    3.030184704    -6.975034116
O    -12.307133308    1.989625094    -6.780006164
O    -11.471112671    3.982261280    -8.060834073
O    -11.131548349    3.869522564    -5.625778062
O    -9.891241110    2.290249092    -7.114449082
H    -10.982242751    4.870802367    -5.731272539
H    -9.829657173    1.388552582    -6.759153665
S    -10.880549592    7.219509906    -7.499275290
O    -10.870483604    6.454205506    -6.257508699
O    -9.678899268    7.471971064    -8.217625724
O    -12.017690676    6.571985738    -8.439579848
O    -11.591216423    8.639213445    -7.104053120
H    -11.987912424    5.565516068    -8.492901520
H    -12.059224929    8.665091168    -6.252489915
