14
-2771.43509
S    12.317930057    4.182100834    -16.978275091
O    11.066602279    4.899474517    -17.104485920
O    13.310252740    4.700418659    -16.081825965
O    12.031253751    2.633214617    -16.554195067
O    12.949019333    3.968382718    -18.444025746
H    12.726983292    2.191893167    -16.035243679
H    12.961661709    4.813575208    -18.999035135
S    12.047276479    7.794571744    -18.718910682
O    12.659056908    6.532903577    -19.108392419
O    11.854692332    8.852186410    -19.651108649
O    10.677349140    7.408520955    -17.963090416
O    12.946323733    8.323116184    -17.455530245
H    10.611909454    6.465068300    -17.618718753
H    13.296215579    7.642590495    -16.853022187
