14
-2771.46014
S    -12.851096295    3.495441750    -8.846730176
O    -12.433176061    2.130568547    -8.594274998
O    -12.547627496    4.551966351    -7.932941640
O    -12.205563801    3.934915400    -10.288541268
O    -14.411802696    3.476266706    -9.214045286
H    -11.818430179    4.819900919    -10.356705686
H    -14.755436565    2.620622159    -9.635102707
S    -14.203184537    -0.189994710    -10.504186917
O    -14.903911022    -1.423546092    -10.678942331
O    -14.905031499    1.045183950    -10.216583246
O    -13.015462675    -0.340909616    -9.438125956
O    -13.347080384    0.050930286    -11.881711925
H    -12.665921438    0.523866905    -9.040062495
H    -13.368024528    -0.648886608    -12.550932326
