14
-2770.95837
S    1.705145114    3.169668892    2.192627656
O    2.134553429    3.426414576    0.852597508
O    1.916555694    4.086590920    3.273417957
O    0.087165070    2.864406078    2.194397426
O    2.251832229    1.696132245    2.611663142
H    -0.403625504    3.181991329    2.968671009
H    2.660051747    1.163352639    1.896004915
S    4.496397782    0.679344739    -0.522738089
O    3.894668502    1.053116043    -1.758267720
O    5.525311611    1.417773772    0.122199160
O    3.344497854    0.279609161    0.605865054
O    4.976972972    -0.890490155    -0.719150845
H    3.325288456    -0.652606879    0.889125815
H    4.960148488    -1.271804418    -1.607746688
