14
-2771.10428
S    -12.513681607    7.410862953    -2.818122894
O    -11.924461964    6.389043110    -2.026686541
O    -12.363207309    7.471802408    -4.263391759
O    -14.118659531    7.465328949    -2.533956526
O    -12.052265603    8.884776020    -2.297256767
H    -14.683613965    7.787113961    -3.258331021
H    -11.478940406    9.407830308    -2.906428919
S    -9.066646267    9.121326805    -5.522970121
O    -8.691601785    7.739357779    -5.435111517
O    -9.029330169    9.855057473    -6.744520065
O    -10.529225576    9.287695442    -4.824583819
O    -8.170614506    9.898290400    -4.383212287
H    -11.187083722    8.537106780    -4.917873471
H    -7.605800743    9.330996989    -3.833360741
