14
-2771.42754
S    -3.841895353    -2.215305695    -4.345895989
O    -3.660503853    -2.838862332    -5.611468219
O    -2.765700445    -1.445265614    -3.731072558
O    -5.106766752    -1.180907944    -4.416531826
O    -4.373164068    -3.249697884    -3.231863354
H    -5.049011990    -0.388840666    -3.856204299
H    -3.646860856    -3.709690697    -2.703054050
S    -0.732716760    -3.597420788    -1.810096873
O    0.436583373    -4.315964866    -2.187391353
O    -2.042808761    -4.072022439    -2.210431822
O    -0.739491192    -3.369460927    -0.186796594
O    -0.644655935    -2.037882660    -2.218240135
H    -0.590296005    -2.463919858    0.131443735
H    -1.380026035    -1.677967955    -2.818857755
