14
-2771.10621
S    -6.701872760    -7.567199399    -14.680180106
O    -7.305860607    -8.852259420    -14.572215613
O    -7.278569293    -6.466252958    -15.399882127
O    -6.373076553    -6.984432696    -13.188684072
O    -5.179940073    -7.789744070    -15.224902058
H    -6.469091504    -6.024916031    -13.056375902
H    -4.819889894    -8.693220773    -15.218889439
S    -9.685424615    -5.207278886    -17.895717584
O    -9.039863420    -6.031279158    -18.869969731
O    -10.582057214    -4.146510241    -18.258869258
O    -10.548347879    -6.180410131    -16.876645525
O    -8.599108733    -4.631152001    -16.844618997
H    -11.407086053    -5.842938731    -16.589120661
H    -8.070647877    -5.289672105    -16.332366598
