14
-2771.41354
S    12.686622290    7.269822142    -19.025105723
O    13.838989801    7.018886085    -18.188667375
O    12.788995243    7.788826302    -20.347729682
O    11.965771906    5.768236150    -19.147869293
O    11.566154558    8.012662782    -18.162946745
H    11.735133351    5.435335547    -20.025320678
H    11.420507450    7.600509416    -17.230926247
S    12.405739933    5.263033374    -15.680119180
O    11.660214150    6.471338814    -16.020633811
O    12.201790609    4.589623167    -14.442175695
O    12.153608245    4.248239344    -16.929344365
O    13.967782033    5.616308439    -15.901076733
H    12.011817035    4.647918005    -17.812075616
H    14.170061610    6.178250155    -16.702512205
