14
-2771.11414
S    4.512166454    1.370456996    1.793404333
O    4.540953344    0.361578330    0.766836817
O    4.854560601    2.739447897    1.618912089
O    3.019421324    1.338459654    2.462587920
O    5.374016693    0.739710352    3.031951638
H    2.617162925    2.185151057    2.715666625
H    5.606785730    -0.202818724    2.974259683
S    5.879050564    0.438053848    -2.546038384
O    5.537518101    0.184775010    -3.917166423
O    5.689733441    1.716012418    -1.931032393
O    5.223611673    -0.700324067    -1.600811375
O    7.469272356    0.015689709    -2.417526001
H    4.928122192    -0.402360141    -0.700344363
H    7.845672143    -0.435232802    -3.188123558
