14
-2771.50971
S    -6.141204786    -5.347921732    -17.703035571
O    -5.594358412    -5.977692695    -16.549180825
O    -5.297575586    -4.640983333    -18.660083807
O    -6.978253603    -6.422597790    -18.595254833
O    -7.306629672    -4.304251635    -17.297561223
H    -7.152869546    -6.179670072    -19.537529381
H    -7.498770450    -3.574941718    -17.956296388
S    -6.972851882    -3.315252872    -20.729252206
O    -7.497446287    -2.772519961    -19.496110548
O    -7.301693681    -4.687479344    -21.030458307
O    -7.446941989    -2.412187704    -21.998945060
O    -5.380286104    -3.098290209    -20.793131399
H    -7.695943091    -2.894690004    -22.807711912
H    -4.899392313    -3.574386499    -20.040087409
