14
-2771.45153
S    -0.806976915    -6.954953867    -10.785402132
O    -2.196513113    -6.595507511    -10.989313285
O    -0.000897136    -6.284074495    -9.813673657
O    -0.765015977    -8.543892884    -10.386363808
O    -0.097976881    -6.984164790    -12.222009834
H    -0.197735961    -8.801717727    -9.642960170
H    -0.692563053    -6.786952005    -13.018896238
S    -3.353207164    -6.310639469    -14.297881872
O    -3.970665057    -5.260683069    -15.044539333
O    -1.922769359    -6.341938264    -14.070626667
O    -4.084414875    -6.507499138    -12.882265798
O    -3.770618887    -7.713418778    -15.037741025
H    -3.485174019    -6.582682698    -12.069628544
H    -4.621058998    -7.719860134    -15.505661322
