14
-2771.44114
S    -8.287176060    4.200581168    0.730207835
O    -7.349491230    4.811585718    -0.152207937
O    -9.010151385    4.976524831    1.717953327
O    -9.352856631    3.326463455    -0.104132240
O    -7.547481345    2.973225061    1.525475644
H    -10.290454674    3.276448782    0.271753770
H    -7.332652807    2.174763386    1.022164193
S    -12.376135268    4.356126709    2.088286890
O    -11.680736450    3.437450448    1.208415677
O    -13.227747072    5.375100010    1.560019589
O    -13.291800945    3.485734081    3.130039424
O    -11.296921525    4.974937081    3.106280177
H    -14.064254150    3.943214833    3.504939215
H    -10.347765644    5.018479004    2.761654829
