14
-2771.39510
S    -11.862160346    3.632111659    -5.967048563
O    -12.110153765    2.923223660    -7.174889460
O    -12.368895261    4.985957887    -5.772642529
O    -12.441931134    2.781096556    -4.696392771
O    -10.293579570    3.672582227    -5.601168624
H    -12.761524476    3.300502024    -3.939579945
H    -9.805310613    4.482892359    -5.955298029
S    -10.034476141    7.349322716    -6.964509029
O    -9.566834232    5.991955151    -6.712504679
O    -9.976076788    7.917224014    -8.267973323
O    -11.505566101    7.453823175    -6.331750268
O    -9.174066047    8.285083301    -5.931077717
H    -11.959220291    6.578534861    -6.088589406
H    -8.735029413    7.837533604    -5.191984903
