14
-2771.44481
S    2.656439815    -3.365399578    -3.305395882
O    2.583131119    -3.197968056    -4.743449084
O    3.173009384    -2.337924066    -2.456474432
O    1.132485023    -3.667292089    -2.781140164
O    3.362770465    -4.771864062    -3.006780291
H    0.863549764    -3.272429524    -1.937761866
H    3.461847493    -5.408268195    -3.790923543
S    2.653815421    -6.196007901    -6.487032758
O    3.459918172    -6.176260463    -5.281921785
O    2.975197867    -7.021307064    -7.605826149
O    1.131296062    -6.566771870    -6.005703471
O    2.416065385    -4.679215348    -6.964950714
H    0.448212746    -6.678527303    -6.679407271
H    2.448655131    -3.977581216    -6.235885910
