14
-2771.03503
S    -11.379220135    7.566340663    -5.243102684
O    -11.531580293    7.004170700    -6.541529211
O    -12.107125824    8.708468310    -4.787623207
O    -11.721660538    6.368670579    -4.115430921
O    -9.809755807    7.721139316    -4.884241915
H    -12.326583368    6.616072274    -3.398534953
H    -9.251428239    6.903356519    -4.928394704
S    -8.897091549    3.998346279    -4.096056272
O    -9.612608206    3.170908836    -5.006238595
O    -7.704061066    3.579282090    -3.430253159
O    -8.455213879    5.405070959    -4.901549864
O    -9.917891095    4.690995962    -3.052018484
H    -7.506044066    5.594957743    -4.947626849
H    -10.650526091    5.246723286    -3.422948731
