14
-2771.10937
S    -10.233506086    1.370022963    0.063637865
O    -9.766224260    0.031935361    -0.159739129
O    -10.836372978    2.155904183    -0.967831199
O    -11.204552661    1.368849496    1.360036294
O    -8.948039968    2.195846837    0.679171670
H    -11.717967685    2.199083207    1.546164224
H    -8.220640435    1.656555756    1.023028466
S    -14.021124583    3.979193516    1.165997216
O    -12.775320742    3.510096845    1.721771665
O    -14.645693587    5.189702626    1.587083801
O    -13.891250508    4.036898956    -0.453308220
O    -15.058676277    2.725301003    1.307208047
H    -14.244779037    4.811486249    -0.920177156
H    -14.663105206    1.838285299    1.398974439
