14
-2771.44101
S    2.317773540    -1.593128874    0.577887696
O    1.993855885    -3.009040456    0.445335158
O    3.490154210    -1.167947000    1.262391233
O    2.211765322    -0.951491930    -0.898092862
O    0.999913255    -0.927614984    1.281869153
H    2.726854373    -1.454420765    -1.603024426
H    0.180322431    -1.448659225    1.242202344
S    3.558114487    -4.233892317    -2.469376631
O    3.294832445    -4.766558059    -3.769091906
O    3.605583193    -2.805855580    -2.226494670
O    2.564920389    -4.873475477    -1.383700052
O    4.989238344    -4.871703032    -1.989907350
H    2.291373011    -4.275539555    -0.607346237
H    5.237883815    -5.723354376    -2.383620638
