14
-2771.09531
S    8.944627020    4.570189730    -12.806192781
O    9.762856606    3.442926666    -13.105577440
O    8.638348136    5.600209950    -13.764809669
O    7.505039710    4.080524680    -12.214541064
O    9.570620905    5.264689806    -11.467317561
H    6.730575008    4.635511744    -12.423640107
H    10.213854690    4.743445781    -10.955417452
S    9.352087844    9.008407836    -15.074989391
O    10.417033946    9.966005512    -15.178337306
O    8.205213338    9.048845099    -15.927003357
O    9.987218675    7.522454929    -15.056769272
O    8.843909347    9.086565501    -13.502868495
H    9.461849150    6.803713276    -14.620523409
H    9.388958964    9.615128358    -12.905287919
