14
-2771.26404
S    -0.586358798    -4.881082744    -8.124835945
O    -0.653701614    -4.549087535    -9.531090672
O    -0.702404048    -3.888552754    -7.105134904
O    -1.754302030    -5.986250517    -7.817609693
O    0.730682436    -5.787468597    -7.918132014
H    -2.299531696    -5.852092066    -7.025756014
H    1.312217949    -5.940257370    -8.713088889
S    2.061217197    -5.170651875    -11.574844650
O    2.383149187    -3.830439340    -11.212758830
O    2.797764907    -5.923629166    -12.542581992
O    2.164916949    -6.089513696    -10.165313264
O    0.480532276    -5.339876220    -11.822428330
H    2.559901840    -6.967527756    -10.251956069
H    -0.115959936    -5.001851919    -11.084370834
