14
-2771.42853
S    14.623840136    -1.413399233    -18.464708639
O    14.959061003    -2.413622980    -19.458363570
O    14.227168711    -0.090237682    -18.827509659
O    13.420762620    -2.037364761    -17.540132738
O    15.810370033    -1.371268992    -17.384590644
H    12.897431316    -1.409044061    -17.019274202
H    16.444027051    -2.165379446    -17.384537194
S    17.108391423    -4.925608724    -18.288359696
O    16.640814343    -6.026861110    -17.517448132
O    17.251019630    -3.599893267    -17.697744891
O    18.593885263    -5.269777591    -18.883228322
O    16.257348875    -4.747148600    -19.637950001
H    19.219151552    -4.528045899    -18.939764164
H    15.716754103    -3.895545282    -19.715166773
