14
-2771.15258
S    -5.410170993    -5.040249143    -6.544004707
O    -4.420033616    -5.264620611    -7.545315553
O    -6.179333263    -3.835058018    -6.464258204
O    -6.478190843    -6.284128657    -6.543846738
O    -4.746464017    -5.312107507    -5.073161222
H    -7.386514660    -6.073741973    -6.271563515
H    -4.221324271    -4.565727684    -4.645121076
S    -2.129976676    -5.279341801    -3.108637598
O    -2.802030590    -4.169280287    -3.758045422
O    -0.709224585    -5.388426685    -3.034719701
O    -2.672364685    -5.370114512    -1.567142072
O    -2.798472484    -6.614201652    -3.736629786
H    -2.024397933    -5.620616612    -0.886946105
H    -3.606362429    -6.469942737    -4.300013417
