14
-2771.44853
S    -1.987899972    -4.167891384    -0.392586706
O    -1.612012797    -5.514100607    -0.008649607
O    -2.559409070    -3.902399196    -1.674785234
O    -3.039293515    -3.584585516    0.718363391
O    -0.728656598    -3.202714329    -0.115116813
H    -3.570638911    -2.817566564    0.446112791
H    0.172374971    -3.613598811    -0.309151984
S    1.798162633    -6.144292977    -0.671588629
O    2.602722198    -6.762004785    -1.679164149
O    1.304869467    -4.789422147    -0.823804078
O    0.550116537    -7.068183668    -0.277056683
O    2.683074130    -6.194502997    0.706243905
H    -0.333600691    -6.596987324    -0.116707891
H    3.529914341    -6.666823842    0.676518303
