14
-2771.17511
S    -8.848996166    1.120843452    -4.034178855
O    -7.482047612    0.773559075    -4.369254329
O    -9.795932176    1.555427591    -5.010121823
O    -9.528663622    -0.155626005    -3.268754026
O    -8.742415483    2.176865112    -2.809547995
H    -10.474035535    -0.313791630    -3.427629935
H    -7.854887209    2.213423308    -2.360905517
S    -4.657585195    2.226897210    -1.895523112
O    -4.059633808    1.305012929    -0.988376570
O    -4.746090233    3.630656230    -1.626406598
O    -3.953966502    2.085185633    -3.375424278
O    -6.139692116    1.686319732    -2.314673673
H    -3.696580452    2.902671537    -3.827162709
H    -6.254232017    1.166370950    -3.170111025
