14
-2771.43747
S    -10.481562120    4.557207430    0.359317778
O    -10.112070585    3.541760542    -0.575819102
O    -11.867176827    4.941175591    0.533335314
O    -9.859379749    4.236417651    1.808643096
O    -9.617290362    5.891098046    -0.033280519
H    -10.524873022    3.966058542    2.517794116
H    -8.732439940    5.734746006    -0.403479827
S    -13.440806617    3.228126167    3.062828407
O    -12.023399584    3.495229544    3.194536371
O    -13.914732350    1.896782804    2.842444862
O    -14.188966317    3.743703365    4.423766215
O    -14.020377076    4.249180721    1.967850030
H    -14.809229239    3.122823241    4.841654748
H    -13.328182188    4.659657443    1.354422206
