14
-2771.23069
S    -5.152163648    -0.397536936    -4.416354485
O    -6.524183451    -0.722093123    -4.226843242
O    -4.202581106    -1.382242297    -4.911602090
O    -5.014723982    0.878102221    -5.424253386
O    -4.512354849    0.210486968    -3.058410130
H    -4.243233525    0.880940314    -6.018790372
H    -4.033163298    -0.452342714    -2.492743133
S    -2.284149679    -3.023391085    -2.373934045
O    -1.127763027    -2.188997453    -2.411270258
O    -2.389952766    -4.150551758    -1.499443354
O    -3.577755744    -2.036253340    -1.928663847
O    -2.783399042    -3.387796588    -3.852877093
H    -4.036774994    -2.274630518    -1.111357458
H    -3.314092885    -2.688493802    -4.354997346
