14
-2771.41944
S    -11.521530130    3.812342225    -0.788226695
O    -12.575820565    4.336670990    -1.598483567
O    -10.749243796    4.680387057    0.077880883
O    -12.053260586    2.581456691    0.097558781
O    -10.499517483    3.032106644    -1.800703920
H    -12.072679691    2.726071627    1.097475617
H    -10.892681648    2.681756122    -2.618237166
S    -11.958603692    4.669441564    3.375057026
O    -12.042920862    3.425317212    2.637561463
O    -13.135768017    5.359217707    3.798783471
O    -11.051777080    4.414742918    4.713730086
O    -10.996375676    5.661613078    2.555443377
H    -11.084096125    5.104713804    5.396479120
H    -10.765303520    5.390859453    1.608909317
