14
-2771.26538
S    0.536938932    -4.581655386    0.514238723
O    0.294703648    -5.457456737    -0.583987784
O    -0.273331015    -3.442765452    0.812739474
O    0.471587549    -5.542250210    1.897759156
O    2.093406053    -4.183710881    0.611795672
H    0.262522120    -5.096191916    2.728566275
H    2.738615280    -4.943356698    0.750119848
S    3.309667203    -7.664191407    1.881271861
O    3.953461915    -8.880351409    1.502076404
O    3.428566181    -6.453022590    1.099994253
O    1.742244178    -7.889607906    2.178866395
O    3.832885763    -7.316458372    3.396118542
H    1.151920346    -7.090684044    2.084669223
H    4.448219358    -7.938066738    3.814476929
