14
-2771.09370
S    4.101604462    3.296769152    1.536255503
O    4.683555776    2.399551420    0.572362355
O    3.562701613    4.569419659    1.191636235
O    2.951812740    2.495573418    2.373581763
O    5.221678215    3.462098546    2.714683445
H    2.270564668    3.032770801    2.814735290
H    5.968274381    2.833099390    2.708450906
S    5.985136347    -1.055318521    -0.016702099
O    5.432538006    -1.835806436    1.055187327
O    5.301202889    -0.875599245    -1.257970116
O    6.448592923    0.385564171    0.572259196
O    7.475413143    -1.692855633    -0.298542347
H    5.823276864    1.143059157    0.459062148
H    7.827902592    -2.261319498    0.403789402
