14
-2771.19013
S    2.111486662    -1.701417211    -2.754626312
O    1.298517046    -0.631164066    -3.249311902
O    1.735052096    -2.540236583    -1.664045810
O    2.506741916    -2.666098452    -4.012888828
O    3.587149805    -1.046543773    -2.464484834
H    2.503046580    -3.664349583    -3.869619196
H    3.738581366    -0.150227514    -2.804506092
S    1.607299093    -5.017100551    -6.073477662
O    2.114100116    -5.165577944    -4.725166806
O    1.890165336    -5.942087510    -7.122073327
O    -0.021368200    -4.878068403    -5.989562818
O    1.989787505    -3.504391734    -6.522088434
H    -0.525845643    -5.078118953    -6.794378032
H    2.202863816    -2.884515426    -5.776298904
