14
-2771.23918
S    -11.166265742    -0.922981444    -7.234864013
O    -11.828586045    -1.783896831    -8.164593652
O    -10.448811258    0.248761634    -7.616005480
O    -12.116736373    -0.619389758    -5.975554368
O    -10.054989843    -1.920390788    -6.453434532
H    -11.665307486    -0.292823385    -5.137274202
H    -10.128895881    -2.868926857    -6.622173065
S    -9.176719411    -0.040716150    -3.511467928
O    -8.295037136    1.079001510    -3.563069338
O    -10.568908955    0.049829940    -3.894031996
O    -8.554319469    -1.295047480    -4.318743498
O    -9.099203408    -0.622235009    -1.983751606
H    -9.050415616    -1.606283116    -5.122290714
H    -8.261742383    -0.482589120    -1.509107954
