14
-2771.40885
S    -10.589910341    -5.488459453    -17.348489325
O    -10.873989908    -4.998991455    -18.654651332
O    -11.672332931    -5.819690094    -16.427522894
O    -9.702161732    -6.857727204    -17.455943880
O    -9.578296681    -4.522581809    -16.559688194
H    -9.888667757    -7.547428588    -16.796918922
H    -9.995911059    -3.928133206    -15.855340530
S    -12.475632476    -3.066488220    -14.442164857
O    -11.075977909    -3.165526745    -14.805718314
O    -12.889890165    -2.466814044    -13.218140561
O    -13.232313248    -2.324153998    -15.693677270
O    -13.146473268    -4.522080099    -14.614442168
H    -14.171320088    -2.515419682    -15.831729331
H    -12.681835095    -5.150725458    -15.260488584
