14
-2771.21133
S    -7.633321392    0.320499098    -4.068815354
O    -6.996622854    0.183965815    -5.361190525
O    -8.260857410    1.532697692    -3.653874561
O    -8.759177867    -0.857884386    -3.918481459
O    -6.548015351    -0.176376940    -2.980801931
H    -9.510652839    -0.665196350    -3.331463816
H    -5.659104116    -0.447849137    -3.342847837
S    -3.372991103    0.044353855    -5.352044496
O    -2.940084142    1.207904988    -4.651021048
O    -2.470009001    -0.908701208    -5.919760735
O    -4.294099986    -0.859565703    -4.267043284
O    -4.536874633    0.408564044    -6.395866013
H    -4.167910800    -1.818362897    -4.294632397
H    -5.493354218    0.354503361    -6.095411563
