14
-2771.42129
S    14.197404162    5.292326892    -17.863732475
O    13.986098811    6.495958275    -18.641999309
O    14.652009001    4.086421030    -18.481210680
O    15.252583757    5.629917934    -16.658744929
O    12.863307587    5.016186945    -17.011004161
H    15.669755805    4.865403350    -16.227079526
H    12.018653729    5.457337404    -17.346686810
S    10.660197257    6.926390314    -19.574227205
O    10.170608116    6.197228209    -20.700851180
O    10.883102373    6.271994886    -18.301039414
O    12.004337208    7.718708183    -19.962070900
O    9.633378084    8.179372612    -19.341634883
H    12.853402404    7.400691643    -19.516656683
H    9.224754634    8.556028775    -20.139111224
