14
-2771.45810
S    1.818992519    -1.433793360    -4.630514086
O    1.689306796    -1.751113358    -6.038538913
O    2.709349042    -0.403910125    -4.192574935
O    0.336348945    -1.009873432    -4.075075346
O    2.055610505    -2.804933841    -3.837069717
H    0.280552445    -0.197967447    -3.545888279
H    2.018728385    -3.655535275    -4.388294282
S    1.497622644    -5.136589481    -6.932477612
O    1.985327444    -4.809369979    -5.607190552
O    2.105557533    -6.164245570    -7.718439812
O    -0.079397291    -5.554887948    -6.775720906
O    1.366344716    -3.771463695    -7.762055347
H    -0.390627459    -6.329108439    -7.268573389
H    1.443172223    -2.913184763    -7.228329539
