14
-2771.18306
S    -13.793626815    0.228031859    -11.917380405
O    -12.992268207    0.223242601    -13.103674080
O    -15.184940512    0.559517536    -11.933283859
O    -13.566030630    -1.188270699    -11.147930234
O    -13.077083742    1.209631841    -10.807526819
H    -13.770895582    -1.229752733    -10.184469306
H    -12.134349342    1.089775115    -10.595338522
S    -12.597114707    -0.057222984    -7.856698557
O    -11.574225876    0.575299348    -8.633814038
O    -13.606931622    -0.876898933    -8.478537961
O    -11.934536538    -0.973011974    -6.683562764
O    -13.304616758    1.080230646    -6.934741412
H    -12.397285533    -1.797425191    -6.446330452
H    -13.032812802    2.007044730    -7.069267402
