14
-2771.22965
S    -13.804056493    1.318174049    -10.778873486
O    -14.504442421    0.497601029    -11.717615393
O    -13.351605685    2.638337194    -11.069576093
O    -14.522049640    1.271134869    -9.342376277
O    -12.438364181    0.415462989    -10.375400379
H    -14.008808460    1.661366730    -8.568106286
H    -12.391072128    -0.477567048    -10.743659488
S    -11.325993598    2.001834347    -7.348282470
O    -12.761631832    2.094881709    -7.499887464
O    -10.462745286    3.118558355    -7.554114903
O    -10.999463577    1.431540402    -5.851010889
O    -10.842595352    0.742851340    -8.243052674
H    -10.098619258    1.580721709    -5.516209114
H    -11.381649783    0.534020537    -9.050986706
