14
-2771.48751
S    -9.757322673    5.280064713    -7.342315656
O    -9.541873891    4.231704707    -8.337856099
O    -9.282994579    6.608125926    -7.543117124
O    -11.354296693    5.267181494    -7.062390127
O    -9.188744977    4.661905092    -5.956744138
H    -11.808622767    4.387556510    -7.169480718
H    -9.179677614    3.664961916    -5.892594265
S    -10.684076229    1.761940725    -7.327040730
O    -9.663853302    2.040740681    -6.334272478
O    -11.837692594    2.628424970    -7.329647341
O    -10.019198931    1.696297262    -8.788894700
O    -11.121881565    0.206640956    -7.136228378
H    -9.646309282    2.592997258    -9.081169222
H    -10.466189707    -0.379360375    -6.713233558
