14
-2771.42890
S    -1.887358293    4.014034198    1.652378978
O    -0.767251545    4.667735217    1.006254199
O    -3.011550254    4.745804892    2.142507087
O    -2.461406599    2.897681209    0.596621283
O    -1.308632389    3.042352981    2.791609277
H    -3.358576826    2.568863805    0.752492807
H    -0.311167054    2.855069141    2.754077402
S    2.253831260    2.913965734    1.239837005
O    1.314978519    2.800618062    2.349796802
O    2.583006047    1.782291818    0.441723598
O    1.769961198    4.147676881    0.334575279
O    3.612772324    3.526188214    1.916643744
H    0.823419695    4.466109904    0.490384388
H    3.530159441    3.862000229    2.824945111
