14
-2771.17479
S    -11.673996882    -4.843391731    -16.177502795
O    -10.336074406    -5.028559282    -16.632898058
O    -12.824278778    -5.327851814    -16.876685690
O    -11.817859428    -5.401460831    -14.638270043
O    -11.884595444    -3.254083858    -15.844299173
H    -12.611676942    -5.917763417    -14.429159791
H    -11.074631999    -2.724652926    -15.563701079
S    -11.509919453    -1.468057285    -13.120701571
O    -11.325194900    -1.981763154    -11.801040658
O    -10.550159076    -1.681946570    -14.183510194
O    -12.934513277    -1.949343523    -13.734093282
O    -11.774093745    0.135679911    -12.944908470
H    -12.866213204    -2.464033231    -14.581289650
H    -11.993931760    0.441705192    -12.047234637
