14
-2771.42722
S    -15.027523482    1.857150921    -13.670386911
O    -13.618427968    1.543629862    -13.798489245
O    -15.708121666    2.690736789    -14.609088244
O    -15.831327005    0.427228213    -13.629691380
O    -15.286218506    2.366846728    -12.170277579
H    -16.780130720    0.451349849    -13.825315577
H    -14.582942335    2.108950306    -11.483484637
S    -12.177334868    0.504618479    -10.782943867
O    -12.374755373    -0.828965506    -10.326721071
O    -13.242077210    1.496549783    -10.684288389
O    -10.915412707    1.174089837    -9.984663370
O    -11.643819291    0.538902951    -12.296844076
H    -10.992846318    2.118667075    -9.769231755
H    -12.285384049    0.907735285    -12.986137898
