14
-2771.45297
S    -15.355309674    0.935854993    -11.444784294
O    -16.482138031    0.770842857    -12.307355606
O    -15.383601033    0.508911591    -10.060639318
O    -14.030663484    0.335103488    -12.122938147
O    -14.988264220    2.534618032    -11.458118451
H    -13.370516104    -0.119680432    -11.503796188
H    -15.206317771    3.023841905    -12.267149506
S    -12.360553856    -0.759802048    -8.773205058
O    -12.547487389    -0.803517110    -10.210133957
O    -11.750641865    -1.841815682    -8.065611107
O    -11.454701814    0.566708874    -8.445245463
O    -13.758788156    -0.341551200    -8.112169416
H    -10.735921658    0.470220798    -7.802132378
H    -14.464193977    0.014521792    -8.747190367
