14
-2771.23468
S    -7.420980159    -5.045380111    -19.701053972
O    -7.379473323    -5.996844993    -18.632568341
O    -6.273127854    -4.694580166    -20.468524176
O    -8.689382244    -5.320194911    -20.645440201
O    -7.983986167    -3.637865881    -18.958589025
H    -9.000213651    -4.565760563    -21.237239163
H    -8.082951156    -3.680601246    -17.996322017
S    -10.186471380    -1.935915136    -21.286744593
O    -9.476705785    -3.065702857    -21.849831183
O    -10.439411027    -0.743076841    -22.028253191
O    -11.643508444    -2.482132254    -20.776383739
O    -9.488787047    -1.612351788    -19.870065088
H    -12.429406696    -1.968305206    -21.019314557
H    -8.901897993    -2.322282865    -19.486003695
