14
-2771.38285
S    -7.051281860    0.939752817    -4.921374670
O    -6.241932062    -0.226121093    -5.251194380
O    -8.392175555    0.800087455    -4.467967840
O    -6.152261454    1.847232637    -3.940367270
O    -7.031622133    1.880075684    -6.260777894
H    -5.511797943    1.344959518    -3.337783995
H    -6.235786159    1.847727929    -6.812764712
S    -3.738485943    -1.020064107    -3.004323030
O    -3.898493612    -2.259399841    -2.325637387
O    -4.550836999    0.138438212    -2.653346804
O    -2.188386381    -0.516280789    -2.850772000
O    -3.829898560    -1.175032725    -4.603329772
H    -2.033032755    0.440482269    -2.872496560
H    -4.713471330    -0.904338651    -5.017624654
