14
-2771.10242
S    11.401626064    9.033108328    -15.183181362
O    11.735205925    8.100530629    -14.159427377
O    11.047169621    8.647181204    -16.525268495
O    10.198997202    10.015716483    -14.676739140
O    12.614426070    10.120278342    -15.270727868
H    9.649726816    10.428691941    -15.369158202
H    13.284477297    10.122079864    -14.567314580
S    10.994126472    9.598162075    -20.199993643
O    12.328808583    9.097433654    -20.094567838
O    10.620008103    10.617025112    -21.139313866
O    9.974039325    8.335072476    -20.488695948
O    10.457025269    10.038996386    -18.736742153
H    9.190797620    8.534761771    -21.021299154
H    10.715612393    9.477685819    -17.961847906
