14
-2771.45544
S    -12.162375876    1.750708001    -12.147934252
O    -12.628756178    0.389099016    -12.313857862
O    -12.110688140    2.670581022    -13.239683304
O    -13.099578465    2.443730184    -10.993171173
O    -10.752443509    1.707913041    -11.381808704
H    -13.111322639    3.412486371    -10.962878568
H    -10.548169846    0.864445718    -10.859021428
S    -11.456381401    -1.771468184    -9.833275836
O    -10.945360889    -3.024447830    -9.372941872
O    -10.580367388    -0.660573001    -10.150195493
O    -12.461268581    -1.972122610    -11.066057811
O    -12.491115969    -1.242096050    -8.676855001
H    -12.633191187    -1.150445877    -11.634269822
H    -12.700252747    -1.844971185    -7.948651155
