14
-2771.24871
S    -11.457122420    9.299488861    -1.569609329
O    -12.850238791    9.006242789    -1.423599147
O    -10.902563030    9.876203974    -2.748661842
O    -10.897351524    10.028308245    -0.251320707
O    -10.705595260    7.807269191    -1.337120499
H    -9.895325758    10.069382305    -0.150094381
H    -11.292700015    7.059298472    -1.156720610
S    -7.442906026    8.495575266    0.124399937
O    -6.045150165    8.445633948    -0.161074858
O    -8.248990030    9.664826858    -0.156404010
O    -8.219625731    7.233450065    -0.508742315
O    -7.597275623    8.163282286    1.720323425
H    -9.145757580    7.391976852    -0.846527259
H    -6.784924849    8.001769284    2.226572053
