14
-2771.26671
S    3.280538030    -1.299475717    -0.437967809
O    3.502739027    -1.895807830    -1.714465542
O    3.087796654    0.106632014    -0.260740686
O    1.872207292    -1.999751807    0.168374129
O    4.295555422    -1.885072021    0.660732195
H    1.169333388    -1.401563404    0.449983664
H    4.185637840    -2.861434029    0.885878331
S    2.558230296    -5.387938522    0.913462057
O    3.673578377    -4.471329750    0.980067513
O    2.692910860    -6.723897917    0.430863590
O    1.907436068    -5.493035673    2.415008511
O    1.349767106    -4.630831975    0.154176820
H    1.345543717    -6.264046004    2.593167084
H    1.432334676    -3.642882622    0.059978312
