14
-2771.18781
S    -13.047524680    -2.166915890    -12.493417663
O    -12.123121252    -3.099589229    -13.065717804
O    -14.221497706    -1.720541718    -13.167782505
O    -13.445216144    -2.680924034    -10.997151780
O    -12.149989004    -0.863021810    -12.041703901
H    -13.867616342    -2.021188509    -10.371894005
H    -11.205681520    -0.877467646    -12.255408503
S    -12.567017251    -1.530223373    -7.983818874
O    -11.461575413    -0.635217864    -7.859934271
O    -13.728547843    -1.228794395    -8.790405164
O    -12.053263283    -2.990879975    -8.483421047
O    -13.042915573    -1.883295020    -6.462077478
H    -12.424388182    -3.318704526    -9.338512704
H    -12.412528678    -1.675472358    -5.749286869
