14
-2771.08254
S    -8.492965047    7.592811203    -0.358892863
O    -7.371485273    7.369089530    0.511732700
O    -8.519777077    8.646209006    -1.318824992
O    -8.848640082    6.214941102    -1.151589929
O    -9.794530716    7.687896436    0.623016115
H    -9.151988070    6.286274881    -2.073295483
H    -9.684404442    7.354163496    1.531702711
S    -5.026434698    4.965035683    1.842554777
O    -3.846879663    4.993436197    1.036646443
O    -6.188351972    4.202314020    1.471757460
O    -4.627374051    4.451010817    3.355460676
O    -5.499556608    6.471511665    2.210571912
H    -5.328750338    3.987298332    3.836565088
H    -6.173699375    6.874846786    1.612940436
