14
-2771.09696
S    6.115092256    -1.243570007    -0.210852824
O    6.783035081    -2.374759606    -0.761476866
O    5.566874164    -0.180443566    -1.014116999
O    4.897666297    -1.724309922    0.762149150
O    7.121804078    -0.588381561    0.894107588
H    4.077409871    -1.195957977    0.734982006
H    7.916437560    -1.095216238    1.136871911
S    5.477435830    2.193241676    -3.892554024
O    5.721660870    1.533071287    -5.144856134
O    4.162639786    2.305918307    -3.339380002
O    6.493732845    1.615494245    -2.774218551
O    6.130391549    3.696237786    -4.063987503
H    6.125970314    1.015985560    -2.077066646
H    6.748276758    3.800233641    -4.804509892
