14
-2771.17951
S    4.287381192    -1.074172023    -3.360554102
O    3.167599421    -1.689398676    -2.723544545
O    4.774710865    -1.474845346    -4.664575879
O    4.097879763    0.534010962    -3.449293150
O    5.529783624    -1.174138655    -2.299803142
H    4.481176483    0.957574274    -4.262846412
H    5.320630503    -1.477144155    -1.400483046
S    5.118216772    1.434914091    -7.351284760
O    5.786170566    0.560029480    -8.257419401
O    5.331747775    2.849783235    -7.311027173
O    3.493017141    1.232218530    -7.491126312
O    5.296055618    0.833774831    -5.842201707
H    2.950483473    2.035191889    -7.508647944
H    5.326576858    -0.167898664    -5.733652407
