14
-2771.01394
S    -12.280124210    -3.672771025    -15.015895046
O    -11.546909078    -4.869205444    -15.274501996
O    -12.817906394    -2.836740989    -16.043760448
O    -13.527269653    -3.997762109    -13.995375215
O    -11.403476129    -2.764727329    -13.975393547
H    -14.401946577    -3.661318757    -14.243884730
H    -10.865706893    -3.243690367    -13.298074412
S    -11.073801111    -2.824006326    -10.368642132
O    -9.971258088    -2.180673319    -9.728495168
O    -11.955994202    -3.696024942    -9.671931915
O    -11.918213618    -1.766915818    -11.267947157
O    -10.397195854    -3.655533717    -11.658624161
H    -12.033920289    -1.957655546    -12.225923817
H    -9.465144068    -3.905065421    -11.591847421
