14
-2771.16314
S    11.667680158    2.898789428    -16.182863892
O    13.089956790    2.904749726    -16.013597226
O    10.900523820    4.083276061    -16.386495421
O    11.295820117    1.841516549    -17.376881498
O    11.078050778    2.045032426    -14.913124828
H    11.056738634    2.218452668    -18.278187252
H    11.738710002    1.600843768    -14.355273277
S    12.456845501    0.959076473    -20.292949209
O    12.379099464    0.175267803    -21.482765080
O    11.536675013    2.036395935    -19.990957081
O    12.455884586    0.010104590    -18.975915907
O    13.979147125    1.553461389    -20.224873876
H    12.088664216    0.433060121    -18.155268480
H    14.658742780    1.091026534    -20.742500948
