14
-2770.92956
S    2.650992237    2.337340573    -1.279121897
O    3.928531727    2.787169163    -1.737651064
O    2.091924216    1.064323690    -1.619110491
O    2.598607542    2.428665562    0.358196784
O    1.591564824    3.531335248    -1.646503417
H    2.395213306    1.607705326    0.836472686
H    1.983959164    4.394405052    -1.868739515
S    2.838850893    -3.146465950    2.377495913
O    2.618845179    -4.108160732    3.411811910
O    3.757388886    -3.329369504    1.298663482
O    1.405757741    -2.721995682    1.705732057
O    3.182964441    -1.727083833    3.133266700
H    1.428537147    -2.419865540    0.780899511
H    3.091900123    -1.715788122    4.099469607
