14
-2771.39951
S    11.957894639    2.397803129    -16.330394965
O    11.420127948    2.234345580    -17.665737004
O    12.775166551    3.520165357    -15.992172740
O    10.714708236    2.378367958    -15.266509741
O    12.706585782    1.031641481    -15.936844271
H    10.908434985    2.699606810    -14.369893801
H    12.715796079    0.301680534    -16.640653639
S    12.509197445    -0.577608401    -19.502760876
O    12.655561066    -0.601237000    -18.052880520
O    11.767181814    -1.579517769    -20.188010574
O    12.030563031    0.901191201    -19.903820601
O    14.049819973    -0.568968410    -20.063390945
H    11.742211107    1.505395239    -19.146726516
H    14.750092432    -0.392419577    -19.416144948
