14
-2771.08033
S    -12.933709133    5.498121776    -3.366011485
O    -12.791585841    4.091598377    -3.193807230
O    -12.290426951    6.238664493    -4.422788636
O    -14.513255901    5.895808696    -3.445535165
O    -12.540426052    6.199235823    -1.945662250
H    -14.755712701    6.646160253    -4.018703258
H    -12.438489919    5.622420382    -1.169341012
S    -9.213659021    6.949055339    -6.417996509
O    -8.907430812    5.617020456    -6.853877463
O    -10.039345534    7.825745909    -7.188747731
O    -9.730330445    6.885282106    -4.881065331
O    -7.775891690    7.691306951    -6.110953673
H    -10.689417760    6.721019631    -4.713191762
H    -7.132363208    7.171221553    -5.607321099
