14
-2771.28489
S    10.133293743    8.200700732    -17.206975400
O    11.117929302    7.259173694    -16.798404825
O    9.467246732    8.090497754    -18.493847284
O    8.925802650    8.254250004    -16.108443205
O    10.695247004    9.718807657    -17.087187993
H    8.024647988    8.366618817    -16.460583138
H    11.037746667    10.123606119    -17.918205261
S    11.169884717    9.777996221    -20.981637742
O    12.070419999    9.721383303    -22.090318997
O    10.521304661    10.979832576    -20.554735497
O    10.121106269    8.558560204    -21.047171481
O    12.020586245    9.276244954    -19.636691652
H    9.741463865    8.270321528    -20.158593093
H    12.896245212    8.891559718    -19.770651014
