14
-2771.41614
S    11.877550310    7.224500906    -12.323366500
O    12.361076612    5.878923291    -12.076041009
O    10.570805657    7.636558161    -11.917075605
O    12.931268792    8.246331602    -11.593131940
O    12.149281814    7.561669258    -13.865244096
H    12.562057253    8.940380210    -11.025956349
H    12.774489552    6.927899700    -14.357890454
S    14.900503125    4.859903469    -14.305375546
O    13.817366751    5.694540953    -14.801924571
O    16.251260081    5.305241446    -14.365354450
O    14.465835056    4.406540764    -12.822415382
O    14.784611708    3.415366624    -15.064440281
H    13.682322383    4.895096275    -12.408982001
H    13.941829604    2.941815423    -14.990640661
