14
-2771.17348
S    2.471698731    -2.919952446    0.462257882
O    1.639756436    -2.504988622    -0.623371580
O    3.296562752    -2.000199001    1.174281940
O    1.390187607    -3.596704738    1.568995243
O    3.280928083    -4.259318203    0.117950656
H    0.589216554    -3.090137602    1.753195926
H    2.754390214    -5.077342558    -0.144404000
S    0.491224087    -6.786216256    0.502406880
O    1.659481900    -6.360967197    -0.237019003
O    -0.829155731    -6.597702652    -0.007274086
O    0.634403318    -8.371064390    0.865125014
O    0.607261296    -6.130217973    1.978772076
H    -0.191827506    -8.845981033    1.065436707
H    1.005239659    -5.219565693    2.017633974
