14
-2771.45224
S    -1.626946304    -8.017252238    -12.490029970
O    -0.731106867    -9.128162877    -12.402718137
O    -1.742902719    -7.244870409    -13.710575824
O    -3.110708572    -8.421533927    -12.038750455
O    -1.194676667    -6.992846680    -11.287553505
H    -3.866242650    -8.084347436    -12.625664617
H    -0.503838493    -7.292970748    -10.675481065
S    -4.740558715    -6.944224580    -15.214224719
O    -4.806230444    -7.839871202    -16.324993378
O    -4.814247011    -7.439198551    -13.854250787
O    -3.451245670    -5.985750256    -15.337096446
O    -5.926076662    -5.834826618    -15.423787379
H    -2.659378915    -6.259627519    -14.775610278
H    -6.101385778    -5.557399534    -16.338066495
