14
-2771.44258
S    -13.819594135    1.503691867    -11.055002902
O    -13.469939810    0.748977186    -12.242925559
O    -13.700774761    2.927258425    -11.010756978
O    -15.390103059    1.159930430    -10.729981054
O    -13.097577247    0.815631968    -9.800604351
H    -15.987105290    1.901079461    -10.553258347
H    -12.952590277    -0.185402789    -9.873352584
S    -13.206278631    -2.677265156    -11.505818105
O    -12.525369682    -3.916055774    -11.699049138
O    -12.861751336    -1.776043267    -10.424566292
O    -13.232812906    -1.838562408    -12.877484547
O    -14.807542816    -2.996799811    -11.361653697
H    -13.316025537    -0.832921699    -12.791683870
H    -15.223370031    -3.551841768    -12.035308848
