14
-2771.27243
S    10.288230754    1.373169459    -17.662524466
O    11.503471396    0.732292632    -18.113769268
O    9.085542051    0.640788215    -17.428213803
O    10.639481321    2.151986684    -16.262390762
O    10.021135049    2.643512586    -18.620973722
H    10.022730614    2.051090123    -15.522007908
H    10.837038636    3.072547967    -19.002058463
S    13.590391174    2.611497947    -20.224984517
O    12.876756638    2.154207938    -21.371744715
O    14.728963275    3.473481039    -20.312103731
O    12.481533477    3.473698082    -19.293835992
O    13.859831678    1.412621302    -19.191251276
H    12.734703017    4.366846053    -19.028233128
H    13.052478068    1.033005217    -18.722439389
