14
-2771.24343
S    -13.591115754    4.664642597    -1.134867774
O    -12.728675513    3.572549426    -1.448713956
O    -14.991537521    4.679311265    -1.417112438
O    -13.466092453    4.868647279    0.531465538
O    -12.925569420    6.061109537    -1.576679052
H    -14.196574921    5.312302396    0.979250421
H    -12.101288012    6.345261267    -1.074940380
S    -10.089445856    5.830902663    1.081160048
O    -8.825057168    5.226212372    0.816741341
O    -10.851974419    6.511395612    0.057109493
O    -11.096115054    4.787247120    1.791746142
O    -9.852113421    6.876341410    2.319575668
H    -12.015329124    4.723359438    1.414357486
H    -9.111041446    6.677915887    2.916436065
