14
-2771.23414
S    -9.472999578    -1.312533294    -6.681389314
O    -9.002912721    -2.658270090    -6.648474952
O    -10.328120251    -0.801877353    -7.707592216
O    -10.341255505    -1.081700028    -5.255215400
O    -8.283123702    -0.274729591    -6.388821244
H    -11.106713849    -0.492400854    -5.306569536
H    -7.908625994    -0.240916846    -5.452558322
S    -8.440686517    -0.304644938    -2.580053866
O    -9.089664889    0.877606386    -2.125976697
O    -7.637665694    -0.296778457    -3.792970794
O    -7.470448103    -0.904749371    -1.415682211
O    -9.508059709    -1.510025183    -2.740518515
H    -6.650216906    -1.337783018    -1.714788187
H    -9.928621442    -1.580746367    -3.638246031
