14
-2771.10752
S    -6.155076898    -7.907726929    -14.497232658
O    -4.874879954    -8.437470722    -14.826744254
O    -6.840230427    -6.918589413    -15.286537146
O    -7.231360890    -9.118893958    -14.298870060
O    -6.064332972    -7.361371592    -12.961330179
H    -8.140241601    -8.951517899    -14.611019862
H    -5.305404125    -7.647105547    -12.424118883
S    -7.585604927    -4.033059720    -17.471393516
O    -7.091428488    -4.875117013    -18.516124482
O    -7.676879506    -2.606949619    -17.611888041
O    -9.111168250    -4.531738589    -17.074130867
O    -6.829030187    -4.359378767    -16.081070600
H    -9.739530368    -3.830342668    -16.853647915
H    -6.823547917    -5.299383444    -15.769323145
