14
-2771.30304
S    1.943985373    -8.488339838    -11.861980325
O    2.878594683    -9.465607420    -12.313341812
O    1.719467952    -7.238487994    -12.548175165
O    0.485934485    -9.158167511    -11.612559748
O    2.348789981    -8.153624774    -10.310312589
H    -0.278961080    -8.766201197    -12.098760542
H    2.789311218    -8.865559456    -9.815559557
S    -0.880413568    -7.182759746    -14.740983987
O    -0.163699370    -8.363474717    -15.110734240
O    -1.963513507    -6.638481320    -15.497604663
O    -1.469307588    -7.504135023    -13.213612255
O    0.154235696    -6.008885803    -14.343645005
H    -2.190683820    -6.952018353    -12.889498062
H    0.879569236    -6.286325114    -13.709292328
