14
-2771.25383
S    -10.392003664    7.906170578    -0.245081455
O    -9.309930443    6.987125213    -0.520892953
O    -11.165491173    8.518398222    -1.275872789
O    -11.451926454    7.147188586    0.747063983
O    -9.816326083    9.022594266    0.769124226
H    -12.359859969    7.491363498    0.763928124
H    -8.890242119    8.898286927    1.114712951
S    -6.161277891    7.465805937    1.018440820
O    -5.721595173    8.009298594    -0.223047363
O    -5.286280982    7.236763510    2.127356680
O    -7.328375505    8.516387445    1.634553441
O    -7.116159371    6.193887672    0.790711405
H    -7.245891450    8.738705913    2.572585246
H    -7.933649394    6.336235711    0.221054243
