14
-2771.38865
S    12.757101822    8.308857356    -13.496466885
O    14.073723201    7.685373129    -13.432382080
O    12.412916275    9.184394232    -14.562811074
O    11.681196230    7.128865352    -13.294739531
O    12.594141176    9.101502007    -12.073021643
H    11.933259753    6.234964099    -13.696598620
H    13.189244722    8.837237040    -11.354200391
S    14.152798000    4.380963817    -14.388977525
O    14.881045598    4.179621943    -15.593703238
O    12.826934830    4.984950598    -14.406665358
O    13.982220604    2.946458391    -13.620333980
O    14.994749897    5.182708218    -13.273049597
H    13.299960171    2.889145993    -12.934484696
H    14.819240043    6.178347069    -13.226436504
