14
-2771.45324
S    -4.489433809    -3.171306664    -5.365054123
O    -3.353318444    -4.063892602    -5.477125757
O    -4.387661999    -1.797862110    -5.745840570
O    -5.730790406    -3.804546777    -6.224269091
O    -5.086345598    -3.308531960    -3.876664512
H    -6.454937478    -3.195164238    -6.445638203
H    -4.414024319    -3.540376332    -3.160269851
S    -1.651679879    -4.545786106    -2.431241581
O    -0.514795687    -4.078787042    -1.700447630
O    -2.909983491    -3.826123198    -2.409708300
O    -1.281445714    -4.825699338    -3.964851243
O    -1.940735706    -6.065082149    -1.890402614
H    -1.995455134    -4.605931855    -4.650478246
H    -1.297470523    -6.446697330    -1.272264990
