14
-2771.44995
S    -12.247097822    2.934065463    -4.945532466
O    -12.090521658    1.514298139    -4.965850961
O    -11.240479593    3.792903166    -4.354711642
O    -12.567757888    3.489456923    -6.418952225
O    -13.676648823    3.239405509    -4.206839448
H    -11.877766890    4.104837896    -6.826136612
H    -14.389088211    2.597459445    -4.360138900
S    -9.373507759    5.746526512    -6.609631860
O    -8.128582820    5.891068791    -7.295617223
O    -10.462661699    4.966032351    -7.160548720
O    -9.126426317    5.251705516    -5.102521783
O    -9.939791488    7.261704940    -6.340744926
H    -9.860045629    4.691949108    -4.685635514
H    -9.276429913    7.962740585    -6.242378000
