14
-2771.40775
S    -8.661892856    5.774905965    -8.331327021
O    -8.017581577    4.475068879    -8.481277837
O    -8.994649294    6.556890127    -9.473156942
O    -9.928008768    5.552402530    -7.368252177
O    -7.673237126    6.631550154    -7.350806858
H    -10.341668653    4.628985654    -7.383615462
H    -7.068543669    6.120022495    -6.787827847
S    -10.404843869    1.933705581    -8.617852643
O    -10.833803270    0.597781311    -8.371138857
O    -10.711414589    3.015064700    -7.702275326
O    -8.824653523    1.968212051    -8.932056825
O    -10.934942295    2.410827855    -10.094832637
H    -8.357915666    2.855016242    -8.775986832
H    -10.507060215    2.025688030    -10.873782750
