14
-2771.44324
S    11.275501762    7.397047679    -15.986203629
O    12.020011361    7.378688351    -17.229552346
O    10.617729110    6.223331705    -15.507593702
O    12.273923946    7.908614618    -14.794352231
O    10.254027119    8.642155992    -16.032166200
H    11.948057355    7.808188834    -13.884826987
H    9.867385944    8.840789313    -16.941949408
S    10.035490190    8.400745461    -19.943571782
O    9.235605409    7.810009137    -20.965268519
O    9.521419456    8.603094096    -18.604505781
O    11.449526118    7.639076473    -19.830637046
O    10.575754296    9.851251641    -20.479386843
H    11.811125661    7.483944817    -18.898927863
H    11.147136370    9.863401480    -21.260187910
