14
-2771.41157
S    -13.004217030    -0.196886890    -8.211399475
O    -14.302432873    0.385225858    -8.152621206
O    -11.872173889    0.415761955    -7.544741863
O    -13.053971147    -1.754002429    -7.793142487
O    -12.570201194    -0.417003675    -9.777690068
H    -12.223217673    -2.123566508    -7.342888191
H    -12.836114158    -1.243602216    -10.207502877
S    -9.302236486    -1.828770723    -6.947771637
O    -10.656556472    -2.343144052    -6.777822872
O    -8.521302493    -2.217618470    -8.072711920
O    -9.382993020    -0.230808262    -6.806998287
O    -8.527269773    -2.228273559    -5.564768720
H    -10.272424407    0.185982529    -7.051202375
H    -9.093350937    -2.458543972    -4.807802364
