14
-2771.25512
S    -14.744553676    0.291960452    -12.495824280
O    -14.869457468    -0.581878336    -11.349841154
O    -14.328518127    -0.178587776    -13.776447774
O    -16.186118595    1.035587502    -12.725491367
O    -13.852294551    1.559274584    -12.034596533
H    -16.332442697    1.434805948    -13.598977522
H    -13.385682401    1.487736762    -11.159538890
S    -12.057965469    -0.529803437    -9.399032136
O    -11.346710003    -0.415861789    -8.164358212
O    -11.436586225    -0.903517427    -10.628660681
O    -13.440217871    -1.327029189    -9.209790402
O    -12.706039703    1.000069338    -9.671926564
H    -14.110023836    -1.196746830    -9.953825922
H    -12.468602091    1.699696958    -9.051311439
