14
-2771.10936
S    5.329437721    -2.353606547    -0.946975633
O    5.285869411    -3.603483431    -1.626877937
O    5.265494238    -1.074213789    -1.596198885
O    4.173684254    -2.307783910    0.207771326
O    6.661011346    -2.368872416    -0.000688277
H    3.755408686    -1.445518134    0.379598294
H    7.126326559    -3.213836780    0.118517761
S    4.929279395    1.015507389    -4.659186151
O    5.285217352    -0.298992544    -5.097195807
O    5.390055322    2.203114222    -5.321045198
O    3.282497709    1.138407069    -4.643893743
O    5.217477052    1.163093817    -3.076020560
H    2.925858890    2.013485649    -4.855503658
H    5.255312045    0.338879679    -2.532727302
