14
-2771.44892
S    -8.177564064    1.817556491    -4.542664855
O    -7.889196118    0.398950744    -4.483462007
O    -9.004205558    2.375150358    -5.565777265
O    -8.851432930    2.244835034    -3.110153317
O    -6.781425223    2.606387809    -4.460505195
H    -9.347947193    3.078108877    -3.092852554
H    -5.981270833    2.075202518    -4.140219801
S    -4.602757575    -0.521983427    -3.692057169
O    -3.709050658    -1.035165526    -4.681618378
O    -4.908997496    0.892283222    -3.615944042
O    -5.993540740    -1.325755414    -3.713438032
O    -4.014998701    -0.997228537    -2.239058263
H    -6.817724630    -0.788919214    -3.946733812
H    -3.549795752    -1.849899287    -2.219999315
