14
-2771.39119
S    7.827037323    4.912992091    -11.243704250
O    6.984610075    4.361137248    -12.247996723
O    7.908750508    6.355810314    -11.043185397
O    7.416890497    4.302763528    -9.783518619
O    9.344249065    4.384509321    -11.368131448
H    7.547778626    4.884591253    -9.016620108
H    9.926455421    4.944942500    -11.974911081
S    10.366535570    7.687724397    -13.228043720
O    10.379983418    6.252693953    -12.974396029
O    10.219206257    8.206194810    -14.545138870
O    9.297771519    8.319392520    -12.210897516
O    11.768334211    8.243241647    -12.587053727
H    8.695482504    7.672910004    -11.711041342
H    12.180965222    7.707325034    -11.893531351
