14
-2771.42650
S    4.312596633    -0.290186126    -5.137153447
O    5.568201983    -0.274032209    -5.859772811
O    3.179403177    -0.997840568    -5.644813163
O    4.585671596    -0.872653784    -3.631773535
O    3.918982013    1.230792052    -4.801020026
H    3.810078675    -1.217326044    -3.157864141
H    4.399504675    1.945994437    -5.329473178
S    6.056025488    2.635930327    -7.725670531
O    5.325419269    2.767357016    -6.481544471
O    5.408561918    2.842095222    -8.983150468
O    7.335918212    3.656480918    -7.690787064
O    6.807693643    1.216332591    -7.704707790
H    7.688314005    3.933477926    -8.553373859
H    6.482490047    0.548682426    -7.019262185
