14
-2771.42808
S    11.111540508    5.624040717    -20.963027671
O    10.869340589    4.743212369    -22.061454634
O    10.033813334    6.320337792    -20.287828162
O    12.019031711    4.922866788    -19.841522244
O    12.146515274    6.776678391    -21.499570103
H    12.049013822    5.403058674    -18.945148595
H    12.564460741    6.648111443    -22.363016561
S    11.189212060    7.777417055    -17.375526060
O    11.897422842    8.991037547    -17.600430606
O    11.795549607    6.487630778    -17.685880104
O    10.775280393    7.674962758    -15.796110967
O    9.741371165    7.793963940    -18.073516908
H    10.784907304    6.786129305    -15.403588222
H    9.669111969    7.279381680    -18.940630929
