14
-2771.13962
S    -4.103599656    -8.050418905    -15.713157854
O    -4.794036217    -7.913600567    -16.968415797
O    -3.574254997    -6.937847169    -14.995891814
O    -5.036632426    -8.890285024    -14.675306951
O    -2.934964735    -9.157066565    -15.983523527
H    -5.050852692    -8.601022954    -13.746756962
H    -3.031154852    -9.710854867    -16.780450684
S    -8.298898102    -7.824631880    -17.843096747
O    -8.105262077    -9.239462364    -17.919862877
O    -9.433753424    -7.169696261    -18.429113616
O    -8.315002025    -7.384587030    -16.247149632
O    -6.954563385    -7.053845652    -18.302554451
H    -8.930037403    -6.676524425    -16.013037025
H    -6.106672490    -7.354324562    -17.882261462
