14
-2771.11114
S    -8.887634277    0.092519586    -3.065827599
O    -8.965032426    -1.196797287    -3.678574641
O    -8.831196934    1.299737742    -3.845336985
O    -10.163583716    0.291831028    -2.045255264
O    -7.691751875    0.118658377    -1.970107984
H    -10.503501027    1.197453627    -1.975738734
H    -6.783187287    -0.046200781    -2.328208553
S    -4.435692508    0.383565848    -4.183998393
O    -5.403869393    -0.241175268    -3.318705300
O    -4.733853482    0.893391069    -5.478513044
O    -3.716810887    1.588517384    -3.349454092
O    -3.200988063    -0.679789361    -4.271362425
H    -3.519182015    2.411431609    -3.828951118
H    -3.250961515    -1.464218668    -3.694997993
