14
-2771.40701
S    -6.725834902    -4.673829984    -19.225979713
O    -7.217761849    -3.369744045    -19.630266935
O    -7.504068890    -5.490496551    -18.357983392
O    -6.299863924    -5.447626462    -20.578708420
O    -5.219713015    -4.498002293    -18.610792555
H    -6.776639119    -5.163585976    -21.426680975
H    -4.474564059    -4.724033528    -19.192978934
S    -8.971599791    -3.534434103    -22.592669872
O    -10.271528209    -4.090996233    -22.432371877
O    -7.787551093    -4.382053519    -22.527618223
O    -8.884846532    -2.750640731    -24.024702055
O    -8.710573964    -2.310526882    -21.581338088
H    -7.997346838    -2.541999071    -24.358071940
H    -8.154025388    -2.524470282    -20.764607343
