14
-2771.23448
S    -10.909820875    6.592381566    -5.740911160
O    -9.532028009    6.940515317    -5.623772354
O    -11.648884977    6.770267339    -6.972267700
O    -11.157817487    5.064977126    -5.271253903
O    -11.693337053    7.384264007    -4.542252520
H    -11.463093420    4.426626728    -5.969809400
H    -11.177304053    7.566225018    -3.737821681
S    -11.569448274    3.875843371    -8.976854804
O    -10.152797563    4.028763909    -9.024469813
O    -12.284340714    2.876959368    -9.707855009
O    -11.950427559    3.579879081    -7.362117165
O    -12.299088525    5.301071162    -9.115661130
H    -12.692189536    2.984763890    -7.191952512
H    -12.112844061    5.976199975    -8.392309582
