14
-2771.42615
S    10.568881554    6.902490245    -13.598131014
O    10.646343819    5.549102754    -13.085404223
O    9.412911964    7.375784131    -14.293201824
O    10.803557635    7.929971327    -12.344380226
O    11.892584768    7.162524930    -14.469377412
H    10.388678156    8.804634008    -12.418101638
H    12.667831932    6.527456294    -14.301504182
S    13.602066742    3.840068166    -13.438148546
O    14.188729722    3.387478617    -12.223669501
O    13.638104317    5.248937207    -13.810293964
O    14.304012085    3.059194143    -14.695081729
O    12.078088814    3.350681406    -13.602317282
H    14.380417781    3.550819259    -15.527783057
H    11.374344798    4.050183786    -13.409714691
