14
-2771.45496
S    -11.348483798    4.110114258    -6.648100307
O    -11.062855471    4.050082574    -5.248589920
O    -10.587004860    3.335149599    -7.607236392
O    -12.902973984    3.843405329    -6.934567202
O    -11.216435932    5.687311305    -7.071177176
H    -13.123214498    3.309918055    -7.768230256
H    -11.106814688    6.334136284    -6.356715698
S    -12.225247154    1.444562506    -9.885023286
O    -13.081975578    2.351310662    -9.147994284
O    -12.135959903    0.064253745    -9.527736670
O    -12.655035587    1.497612224    -11.463587762
O    -10.758352338    2.103636947    -9.975573537
H    -12.318849547    0.780627589    -12.026253522
H    -10.486293955    2.650736006    -9.172496167
