14
-2771.13782
S    -10.151762602    6.086796950    0.047395427
O    -9.394064783    4.898876858    -0.208857905
O    -11.040405781    6.675954602    -0.899059186
O    -10.981293361    5.852127170    1.439363445
O    -9.072872455    7.200972252    0.576448312
H    -11.970378597    6.052842385    1.442095138
H    -8.179839173    6.874127106    0.776199011
S    -13.321530702    3.741194533    2.036155694
O    -13.523910138    2.743712671    1.044165287
O    -13.476223030    5.160064591    1.749087743
O    -14.268862191    3.426050256    3.326887504
O    -11.843161834    3.631625634    2.704545253
H    -14.484729027    4.172874101    3.909544698
H    -11.209216026    4.342010396    2.425003633
