14
-2771.00621
S    -1.914291129    -6.448778638    0.688621231
O    -1.202375853    -7.463357214    -0.028559268
O    -2.560872900    -5.351323077    0.030330715
O    -3.071087991    -7.130525377    1.632793007
O    -0.908212336    -5.877334516    1.831673627
H    -3.910003979    -6.645046084    1.691425730
H    -0.050288398    -6.347101165    1.930424356
S    1.857489527    -8.737852960    1.687319515
O    2.385684895    -9.032966696    0.397984364
O    0.823598575    -9.456695298    2.355934295
O    3.106322342    -8.645795844    2.748700825
O    1.470562723    -7.122821850    1.686194801
H    2.950882920    -8.972246613    3.648934470
H    1.924652172    -6.576886285    1.019052213
