14
-2771.45778
S    -14.859562012    0.017166776    -13.834272453
O    -13.807680365    -0.830974493    -13.307652855
O    -14.818862872    0.533427195    -15.166250185
O    -16.253011627    -0.834841014    -13.703518733
O    -15.122720233    1.198301681    -12.777709009
H    -16.930834252    -0.713540105    -14.382465309
H    -15.010895873    0.936295941    -11.805951757
S    -13.910308513    -1.053175892    -9.793992149
O    -14.710800098    -0.031727193    -10.439237284
O    -12.970440735    -0.712160079    -8.771338600
O    -14.937418624    -2.130976662    -9.109553435
O    -13.239209846    -1.945323105    -10.942554921
H    -14.793318536    -2.344301139    -8.173935895
H    -13.407213908    -1.651688558    -11.900080109
