14
-2771.24779
S    -0.984120135    -4.632239511    -1.130170427
O    -0.703699327    -4.773967089    -2.519885889
O    -2.218102121    -4.106401996    -0.631448123
O    -0.894475296    -6.169826436    -0.441067984
O    0.258914083    -3.977447028    -0.350294338
H    -1.638516701    -6.424663707    0.123025910
H    1.144825381    -4.448074706    -0.438208170
S    2.656002933    -6.960412811    -0.125388358
O    3.541734826    -7.830886520    -0.827781961
O    2.358676335    -5.619807882    -0.579963399
O    1.239136278    -7.687372199    0.142689964
O    3.220841117    -6.859513216    1.408545205
H    0.411426364    -7.170508681    -0.058255202
H    3.761664215    -7.601348228    1.725915009
