14
-2771.26593
S    11.904123014    6.954194942    -13.737860395
O    12.289103438    5.890480068    -14.639104259
O    10.942560978    7.944294781    -14.101496484
O    11.347000806    6.254622171    -12.364382474
O    13.262091516    7.618376377    -13.179834162
H    10.505559813    6.575138665    -12.004301664
H    14.107803082    7.114312982    -13.341572913
S    15.684935113    5.318106562    -15.203030826
O    16.860822844    4.533679673    -14.987857506
O    15.602286355    6.368645304    -16.162914907
O    14.393218728    4.362074658    -15.272565632
O    15.358229191    6.028010447    -13.709109289
H    13.505926957    4.800963166    -15.090913935
H    15.785180903    5.635795259    -12.936340829
