14
-2771.24050
S    10.831258881    6.391297985    -16.689977518
O    11.553357395    6.033161435    -17.872960041
O    10.487974896    7.736087138    -16.365106601
O    9.580170284    5.406506708    -16.488104578
O    11.801407468    5.815443879    -15.436261285
H    9.381662246    5.057514028    -15.567817467
H    12.545994242    5.255333801    -15.701970445
S    10.150425983    4.258509030    -12.834149663
O    9.297338605    4.567016510    -13.960415571
O    9.637860709    4.040295088    -11.520936728
O    11.012324637    2.921473347    -13.235135317
O    11.339498231    5.349801067    -12.834902169
H    11.107267201    2.223170700    -12.570328468
H    11.594066104    5.692030322    -13.737829477
