14
-2771.26958
S    0.123167274    -8.060859807    -10.559262607
O    0.412767317    -9.458549419    -10.581309636
O    0.319382377    -7.216484765    -11.717149765
O    -1.364371263    -7.771875080    -10.010973402
O    1.007018677    -7.433183841    -9.330802080
H    -1.871013377    -7.031455137    -10.446016079
H    1.519834050    -8.052758062    -8.787550317
S    -2.369114115    -5.405119101    -12.960799678
O    -2.709835113    -6.621505140    -13.621518376
O    -3.076046034    -4.177256518    -13.154318858
O    -2.501210004    -5.717275182    -11.309865598
O    -0.782617542    -5.143033628    -13.004289589
H    -2.812478222    -4.992747297    -10.752304355
H    -0.206387832    -5.854154732    -12.585286006
