14
-2771.42970
S    7.746733838    7.329163634    -15.053227631
O    7.901296844    6.057749931    -15.673867333
O    6.877685203    8.346136597    -15.634569052
O    7.184057302    7.127741889    -13.529738847
O    9.166126072    8.025159567    -14.770260864
H    6.547900943    7.791054837    -13.213202222
H    9.399717054    8.814857244    -15.357096782
S    8.645691686    10.563906037    -17.655091295
O    9.368046220    10.050084471    -16.507628656
O    8.913919245    11.858602179    -18.197388678
O    8.876481186    9.491010647    -18.872740673
O    7.079788245    10.362558847    -17.376775295
H    9.011532350    9.841963581    -19.765345129
H    6.840127163    9.613619860    -16.731117206
