14
-2771.42704
S    -4.807129095    4.831606213    0.841406963
O    -4.032169451    3.627872303    0.619441058
O    -5.419861332    5.533409995    -0.241176321
O    -6.003065894    4.467843070    1.902131154
O    -3.924658392    5.825699875    1.739919386
H    -6.759368507    5.075526402    1.927054396
H    -3.062284891    5.448581494    2.122353826
S    -1.247271202    3.163123963    2.681850325
O    -1.400119199    2.451587810    3.904921030
O    -1.727101305    4.533382240    2.543905960
O    0.339244275    3.239410788    2.289060336
O    -1.835994803    2.335230727    1.438307993
H    0.640801619    4.059215216    1.863651273
H    -2.686006980    2.698163737    1.030681851
