14
-2771.44903
S    -9.652859896    2.554546418    -0.324946661
O    -9.002294306    2.448416675    -1.593428870
O    -10.307648652    3.779874345    0.090232700
O    -10.680597836    1.347866067    -0.089456320
O    -8.509958342    2.214485695    0.800029897
H    -11.559918052    1.589938541    0.355412073
H    -7.634643128    1.946333913    0.480392315
S    -13.292770219    3.469670042    1.900060506
O    -12.873809594    2.376072028    1.045331927
O    -14.605132831    4.028249281    1.801385689
O    -13.134937871    2.966969046    3.452026289
O    -12.161527568    4.603204864    1.832954012
H    -13.873513092    3.148492307    4.054281378
H    -11.380221583    4.417911303    1.212237807
