14
-2771.15249
S    -12.839397992    9.034178315    -4.168213344
O    -12.535381346    7.952760174    -5.074190493
O    -13.550772366    10.208381772    -4.557153426
O    -13.612321808    8.432087831    -2.860297864
O    -11.403330107    9.439635114    -3.508726692
H    -14.269334547    9.010231264    -2.434555319
H    -10.698833785    8.745008286    -3.611295214
S    -8.638274963    8.009683913    -5.757117411
O    -7.442523967    7.923386200    -4.985952019
O    -8.817805957    7.342423947    -7.003779402
O    -9.898567375    7.612335108    -4.763218850
O    -9.057004455    9.589224968    -5.923125237
H    -10.746881355    7.285346294    -5.166771519
H    -9.587354474    9.997028300    -5.219977457
