14
-2771.18463
S    12.999637716    6.947596882    -16.400881795
O    14.259046158    6.294630545    -16.543448059
O    11.921424821    6.787910937    -17.347772443
O    12.340431457    6.592640526    -14.949412344
O    13.280312507    8.535987158    -16.174154845
H    11.367703196    6.595119025    -14.894842481
H    14.197003306    8.851030805    -16.271562728
S    12.903568807    7.604129664    -20.728511493
O    13.510700417    6.844650617    -21.782844243
O    12.469889538    8.952215032    -20.916878950
O    11.741626318    6.731929490    -20.023119462
O    14.001457749    7.586079351    -19.482209596
H    11.698211983    6.748393471    -19.027740824
H    14.772349544    7.010912134    -19.593534135
