14
-2771.42748
S    -2.891372620    4.985661408    2.918745076
O    -2.243242547    5.119652020    1.628292904
O    -3.571319342    6.076852812    3.541483107
O    -3.984608544    3.773902037    2.764013975
O    -1.843736296    4.305050917    3.924306581
H    -4.838771991    3.870884634    3.208753967
H    -1.165068656    3.683416428    3.491755572
S    -0.212604753    2.355843187    0.999945055
O    -0.860786461    1.157272711    0.589905147
O    -0.258013904    2.796996690    2.389625113
O    1.382806397    2.261046944    0.649326425
O    -0.653638505    3.607835384    0.095622173
H    1.989198651    2.690862350    1.275412300
H    -1.263562804    4.282962276    0.537868735
