14
-2771.13320
S    -12.015813495    8.873718180    -4.944492070
O    -12.336307465    8.021826325    -3.850383022
O    -10.988196295    8.603030093    -5.914927933
O    -13.358221413    9.161075098    -5.831871280
O    -11.765372210    10.365939628    -4.332104042
H    -13.252181636    9.185657716    -6.798990668
H    -11.957420395    10.501320235    -3.387369693
S    -8.013597472    6.631997737    -5.837017046
O    -7.987826453    7.033210479    -4.463662658
O    -6.885210076    6.026490590    -6.485257370
O    -9.262061609    5.571135636    -6.051838475
O    -8.551326940    7.855998288    -6.749287921
H    -9.107622230    4.858066583    -6.686377317
H    -9.435329961    8.229231732    -6.499497259
