14
-2771.10743
S    -10.579598599    1.523093177    -3.233143627
O    -9.730626610    2.332951909    -4.051355118
O    -11.900975817    1.932919669    -2.850222624
O    -10.766090013    0.052734361    -3.960233375
O    -9.779730908    1.063872079    -1.904111131
H    -11.610368460    -0.393089564    -3.805765701
H    -8.868777058    0.692182698    -2.026831001
S    -5.928877692    0.495482306    -2.248536815
O    -7.314350549    0.115848208    -2.360978443
O    -5.286650353    1.451524611    -3.084693273
O    -5.664533202    0.959128849    -0.704291927
O    -5.097782960    -0.909413237    -2.263331630
H    -5.105551840    1.741254393    -0.556496318
H    -5.611368184    -1.726630368    -2.134035567
