14
-2771.11563
S    -8.179461632    -0.887395009    -5.051185933
O    -8.274115620    0.258007467    -5.889296764
O    -7.841363613    -0.851116803    -3.652252659
O    -9.572692148    -1.739185868    -5.127468898
O    -7.175143495    -1.944307473    -5.786059725
H    -9.903257893    -2.121316767    -4.295453056
H    -7.019768537    -1.834915844    -6.739459392
S    -6.286933218    1.423906253    -1.323685166
O    -5.565798236    1.675130734    -0.107837109
O    -6.119786052    2.230110953    -2.493349106
O    -6.132692688    -0.138540718    -1.712342848
O    -7.882942554    1.442701825    -0.895374204
H    -6.727478842    -0.479419705    -2.428554837
H    -8.066660044    1.489170971    0.052865553
