14
-2771.10703
S    -13.752053560    5.495408566    -1.524782385
O    -12.684023535    4.736434299    -0.949777941
O    -13.901960522    5.659162275    -2.943787145
O    -15.191368669    4.881791998    -1.006333494
O    -13.821018913    6.950680373    -0.824310818
H    -15.938734413    4.998822624    -1.612157083
H    -13.166920663    7.161947808    -0.109469851
S    -10.714106756    8.342945055    1.000034067
O    -9.553165449    8.044081242    0.231644779
O    -11.926597955    7.565549325    0.970317611
O    -10.321071992    8.473718998    2.578716658
O    -11.102277282    9.896666280    0.678215957
H    -10.960327061    8.129510334    3.228047991
H    -10.443099490    10.432529369    0.203456314
