14
-2771.10119
S    -5.589701620    -7.344588182    -15.897688876
O    -5.084265386    -8.674505085    -15.967995921
O    -6.138702507    -6.643222046    -17.028861785
O    -6.713272027    -7.231217580    -14.720451736
O    -4.412994632    -6.418510715    -15.245050699
H    -7.398655115    -6.545208974    -14.832807108
H    -3.655003348    -6.873455100    -14.840043940
S    -6.040970545    -4.020353958    -19.663305892
O    -5.162293468    -3.165917896    -20.411268015
O    -7.316326153    -4.430441875    -20.161330515
O    -5.198853902    -5.300180753    -19.148783944
O    -6.267983518    -3.254170412    -18.214446799
H    -5.570844294    -5.821592318    -18.392262945
H    -5.698882422    -2.491716548    -18.045053987
