14
-2771.42739
S    -5.931250760    -2.255535962    -5.302979782
O    -4.779507858    -3.116778365    -5.124578872
O    -6.645254909    -2.190703460    -6.538098467
O    -7.018067568    -2.664132833    -4.144140842
O    -5.529738569    -0.783516714    -4.804428181
H    -7.936554355    -2.388181437    -4.286870611
H    -4.716585696    -0.722363253    -4.198072650
S    -2.669932565    -2.089860005    -2.529846571
O    -3.367971124    -1.032958171    -3.253000742
O    -3.007370971    -2.400604737    -1.182549575
O    -2.700216115    -3.395867188    -3.462764292
O    -1.089912366    -1.672532730    -2.615490628
H    -3.436680631    -3.430321298    -4.154730542
H    -0.863872743    -0.963453421    -3.240450678
