14
-2771.44677
S    13.179510625    5.661206648    -19.435174633
O    13.634196674    4.360793957    -19.814845421
O    13.216882891    6.786246546    -20.349726592
O    11.711672430    5.594801425    -18.793385776
O    14.063485582    6.097331516    -18.124761577
H    11.181966245    6.459990490    -18.816339894
H    14.615915800    5.422251854    -17.705336358
S    11.094848428    9.400282909    -19.345526475
O    10.669981445    8.042784741    -19.064668761
O    10.163525041    10.392399120    -19.784121797
O    11.767483582    9.988793661    -17.970414891
O    12.376523049    9.325733568    -20.302765023
H    11.426236987    10.832424402    -17.636419451
H    12.804609814    8.411324655    -20.411912824
