14
-2771.42881
S    2.060836458    -3.550818916    -4.833459405
O    2.869497407    -4.438772982    -4.069938761
O    0.792444911    -3.992021222    -5.400923837
O    1.692268243    -2.237730969    -3.930572778
O    2.886766941    -2.865742182    -6.030685951
H    0.878984667    -1.761765127    -4.166941473
H    2.724490338    -3.245436298    -6.952778371
S    1.237215306    -5.217874814    -8.642051633
O    0.809023989    -5.397445661    -9.992517455
O    2.138699606    -4.150954694    -8.255707239
O    -0.024444947    -5.183266868    -7.649948107
O    1.936173836    -6.624221808    -8.168256821
H    0.134198767    -4.758647445    -6.740611997
H    1.617527795    -7.438083872    -8.586839888
