14
-2771.45822
S    -3.487115545    -2.230737996    -3.659123150
O    -3.130504464    -3.310808237    -2.759555771
O    -4.823225196    -2.054173248    -4.134399791
O    -3.068201490    -0.836880215    -2.906425528
O    -2.448879120    -2.239881406    -4.883728152
H    -3.622204254    -0.056457729    -3.046550526
H    -1.512074553    -2.550328763    -4.654489203
S    0.309898729    -4.044607671    -2.762729934
O    0.980580206    -5.251574809    -3.136359883
O    -0.185814230    -3.128332606    -3.770333331
O    -0.880008256    -4.325054524    -1.727760524
O    1.366724467    -3.224233570    -1.817477904
H    -1.793814283    -3.962171989    -1.977923821
H    2.230862857    -3.638836064    -1.663250938
