14
-2771.42058
S    -0.102456850    -5.422690082    0.858923035
O    0.884507899    -6.378818174    0.397291558
O    0.042411492    -4.021339902    0.615118093
O    -1.553512977    -5.845835844    0.228313591
O    -0.341254317    -5.699243026    2.422137808
H    -2.171953984    -5.118842599    0.044659655
H    -0.006419758    -6.589297984    2.778751372
S    1.922899182    -8.838371253    2.598564922
O    1.786595023    -10.183359052    2.155995021
O    0.761784617    -8.062315236    3.012463061
O    2.960560306    -8.796608011    3.864263078
O    2.737878910    -7.918431470    1.557427414
H    2.970532118    -7.991073253    4.403187578
H    2.181592161    -7.299125324    0.986224285
