14
-2771.22539
S    -11.438522990    -4.842837527    -19.356654554
O    -11.166277400    -5.092220628    -20.738549346
O    -10.435559013    -4.868740124    -18.344390116
O    -12.383310064    -3.555884544    -19.191306664
O    -12.580430931    -6.014620694    -18.945000016
H    -12.831781803    -3.427741268    -18.298466152
H    -12.856077588    -6.607948498    -19.657253257
S    -14.221600403    -4.694784673    -16.015854108
O    -13.655356350    -5.072068637    -14.761902647
O    -13.656600474    -3.646557231    -16.837093420
O    -14.393841213    -5.990396879    -16.967919387
O    -15.790117039    -4.333943046    -15.726183823
H    -13.765053726    -6.072733503    -17.733859151
H    -16.202768483    -4.775668229    -14.964332574
