14
-2771.43784
S    0.798564978    -1.825307199    -4.099412234
O    1.462529003    -1.675162036    -5.379338672
O    0.992580197    -0.873342900    -3.050072334
O    -0.818424778    -1.882365469    -4.358173637
O    1.079090036    -3.317982332    -3.588250572
H    -1.372049644    -1.437775138    -3.693956862
H    1.588796308    -3.928549737    -4.223077429
S    3.068778344    -4.280578849    -6.750841128
O    2.533210397    -4.596878071    -5.431461235
O    2.343194218    -4.593829587    -7.933711524
O    3.522738925    -2.735092647    -6.713259385
O    4.528459285    -5.019060471    -6.791935364
H    2.859951333    -2.116984397    -6.270165072
H    4.880594045    -5.327496022    -5.940149787
