17
Properties=species:S:1:pos:R:3:forces:R:3 -1912.06022=T energy=-22728.86025123625 free_energy=-22728.86025123625 pbc="F F F"
S       26.48131154     -23.24517310      26.81182759       0.00026611      -0.00017253      -0.00007496
O       25.38321984     -24.16576932      27.00781434       0.00034595       0.00043368      -0.00026321
O       27.39291253     -23.48562460      25.71544767      -0.00045240      -0.00020891       0.00036108
O       25.98094442     -21.76461238      26.80258991      -0.00028282      -0.00009102      -0.00021204
O       27.30840381     -23.11183307      28.18172224      -0.00044745       0.00071874      -0.00008091
H       25.52618364     -21.60702974      25.90310924       0.00007672      -0.00003060       0.00009140
H       27.73845688     -23.96510236      28.37390467       0.00051944      -0.00071353       0.00015409
N       24.96069827     -21.73276956      24.31600217       0.00017104       0.00051646       0.00006482
C       24.70497616     -20.45076832      23.67670537       0.00048390      -0.00002193      -0.00009689
C       23.80319804     -22.62548735      24.31845112      -0.00027215      -0.00034913       0.00016050
H       25.76516920     -22.19479637      23.89817714       0.00005261      -0.00009981      -0.00004697
H       23.91171733     -19.93663351      24.22790225      -0.00025345       0.00008945       0.00028454
H       25.60302396     -19.83167456      23.72515115      -0.00030777      -0.00016829      -0.00026445
H       24.39285145     -20.54586384      22.62559052       0.00015968      -0.00004677       0.00022042
H       22.95618441     -22.10293256      24.77406355      -0.00006057      -0.00001891       0.00000900
H       23.51015477     -22.94509406      23.30830257      -0.00003217       0.00006064      -0.00035575
H       24.02385670     -23.50510622      24.92588936       0.00003296       0.00010250       0.00004943
