17
Properties=species:S:1:pos:R:3:forces:R:3 -1912.02086=T energy=-22728.853648987802 free_energy=-22728.853648987802 pbc="F F F"
S       13.86377872     -17.49935002      19.98875695      -0.00004754      -0.00029416      -0.00000771
O       14.10880833     -18.90059295      20.24819229       0.00001508       0.00010109       0.00006145
O       13.62735598     -17.08711907      18.62311253      -0.00006247       0.00011301      -0.00013161
O       12.76927159     -16.93134856      20.94687038      -0.00006890      -0.00003869      -0.00002015
O       15.06209443     -16.62866004      20.60536741       0.00009584       0.00007978       0.00010877
H       11.87743065     -17.37323903      20.71800322       0.00004411       0.00011221       0.00001111
H       15.88335170     -16.84074197      20.12549541      -0.00002450      -0.00003659      -0.00005008
N       10.50225980     -18.18771119      20.21654925       0.00005272       0.00005546       0.00001138
C       10.77928487     -19.61254158      20.41694014       0.00002226      -0.00009143      -0.00010395
C       10.30372669     -17.82148404      18.81173225      -0.00002471      -0.00001079       0.00014782
H        9.69848292     -17.90621580      20.76875503       0.00004318      -0.00006653      -0.00003158
H       11.80013833     -19.82511645      20.09140872      -0.00003510       0.00006824      -0.00002611
H       10.69593772     -19.85809714      21.47767763      -0.00006782       0.00002011       0.00010388
H       10.08650735     -20.25489023      19.85501016       0.00002312      -0.00002439       0.00000834
H       11.27021089     -17.82918410      18.30266461       0.00001868      -0.00001037       0.00002567
H        9.62381965     -18.51214013      18.29304403       0.00001585       0.00008910      -0.00005019
H        9.88756169     -16.81384911      18.74932202       0.00000036      -0.00006624      -0.00005706
