17
Properties=species:S:1:pos:R:3:forces:R:3 -1912.03017=T energy=-22728.832233090132 free_energy=-22728.832233090132 pbc="F F F"
S       11.45786184       2.34787514     -19.59246515      -0.00034531       0.00057450       0.00070608
O       11.50937119       2.25090100     -21.02660418       0.00025323      -0.00021553      -0.00066042
O       10.90049506       3.52263106     -18.95207970       0.00016397      -0.00006795       0.00000131
O       10.81855320       1.04430200     -19.01807941      -0.00008686      -0.00010806       0.00026267
O       12.95378471       2.13950174     -18.99573166       0.00047153       0.00076531      -0.00040931
H       10.63372860       1.19362834     -18.01727693       0.00008142      -0.00022702      -0.00013145
H       13.46228560       2.95442372     -19.14876994      -0.00039763      -0.00072778       0.00012991
N       10.47663392       1.76076340     -16.49567266      -0.00007017       0.00001649       0.00003205
C       11.77320292       1.63515370     -15.83668512      -0.00018632      -0.00007136       0.00005090
C        9.38341120       1.14768699     -15.75718934       0.00007573       0.00019960       0.00033665
H       10.27921076       2.73249939     -16.72143553      -0.00008191       0.00005072      -0.00004243
H       11.96548111       0.57651831     -15.63435181       0.00018807      -0.00018315      -0.00017689
H       12.56016628       2.00242936     -16.49742464       0.00001739      -0.00019687      -0.00009981
H       11.81653720       2.18213887     -14.88409493      -0.00023470       0.00027744       0.00019030
H        9.58263354       0.07608020     -15.66042921       0.00012991      -0.00016359      -0.00005555
H        9.25694350       1.57167282     -14.74974546      -0.00007525      -0.00007832      -0.00005506
H        8.45069052       1.26971432     -16.31144800       0.00009707       0.00015527      -0.00007908
