17
Properties=species:S:1:pos:R:3:forces:R:3 -1912.05085=T energy=-22728.760263614942 free_energy=-22728.760263614942 pbc="F F F"
S       17.82423837     -20.21408765      18.21088593       0.00000615       0.00007707      -0.00006783
O       19.13938769     -20.57758823      18.67379028      -0.00007319       0.00013113      -0.00010836
O       17.37858023     -20.49505450      16.86861682       0.00006211       0.00035322      -0.00041342
O       16.78428731     -20.75683413      19.25703954      -0.00016496      -0.00024337       0.00021201
O       17.65874568     -18.60942013      18.38589506       0.00070256      -0.00006482       0.00055289
H       15.85475646     -20.41327793      18.98769313       0.00016884      -0.00010488       0.00002783
H       18.28874723     -18.31544952      19.06451925      -0.00059028      -0.00002794      -0.00007151
N       14.40061005     -19.98676791      18.38885650      -0.00011000      -0.00019436      -0.00014332
C       14.05488297     -21.12166024      17.53463125      -0.00028238       0.00016570       0.00003713
C       14.50026874     -18.72622116      17.65201650       0.00018498       0.00006616       0.00010980
H       13.74346283     -19.90122629      19.15785257       0.00003921      -0.00009757       0.00012181
H       14.84287892     -21.24375893      16.78788289      -0.00037882      -0.00026985       0.00014945
H       14.00255236     -22.03246977      18.13340852       0.00023420       0.00017279       0.00016885
H       13.09690990     -20.98131035      17.01446880       0.00019847       0.00011131      -0.00002058
H       15.29249774     -18.81893061      16.90782708      -0.00015209      -0.00034595      -0.00047723
H       13.56672876     -18.46494351      17.13338710       0.00043002       0.00003605       0.00002730
H       14.76288163     -17.91734548      18.33501161      -0.00027455       0.00023513      -0.00010473
