17
Properties=species:S:1:pos:R:3:forces:R:3 -1911.99500=T energy=-22728.836898151905 free_energy=-22728.836898151905 pbc="F F F"
S        6.87100180      -2.82848544     -18.57703944       0.00022330       0.00004894       0.00026220
O        8.30399335      -2.74269030     -18.40257485      -0.00043535       0.00008714      -0.00007275
O        6.30345162      -4.08332410     -19.01777146      -0.00006485      -0.00008553      -0.00019443
O        6.11948554      -2.29180232     -17.31750142       0.00012799      -0.00004834       0.00012732
O        6.38275859      -1.64818083     -19.54894116       0.00021523      -0.00012472      -0.00027710
H        6.26254487      -2.96257695     -16.56092220      -0.00007485      -0.00001323      -0.00008167
H        6.75725570      -1.79454408     -20.43687583      -0.00005993       0.00001722       0.00026360
N        6.67437811      -4.05143770     -15.35787477       0.00020042      -0.00011903       0.00004461
C        7.59162539      -5.02932860     -15.94546209      -0.00020647      -0.00004143       0.00000107
C        5.48364528      -4.66311604     -14.77767092       0.00017343      -0.00008449       0.00002515
H        7.15433587      -3.48854613     -14.66209626      -0.00004580      -0.00014459      -0.00011569
H        7.06692626      -5.56364376     -16.74194085       0.00000506       0.00009776       0.00000883
H        8.44007164      -4.51138730     -16.39424749       0.00006908       0.00016047      -0.00007007
H        7.95773825      -5.76350769     -15.21437488      -0.00009072       0.00012493       0.00009154
H        4.95058390      -5.20978289     -15.56140769       0.00007937       0.00001762      -0.00003560
H        5.71803564      -5.36908857     -13.96725218      -0.00004508      -0.00014052       0.00003704
H        4.81731974      -3.88846062     -14.39378240      -0.00007100       0.00024757      -0.00001405
