17
Properties=species:S:1:pos:R:3:forces:R:3 -1911.73381=T energy=-22728.39238355408 free_energy=-22728.39238355408 pbc="F F F"
S       27.64272654     -22.98569080      25.98790670      -0.00016841      -0.00005750       0.00025110
O       28.99761413     -22.55431395      25.75349375       0.00022984       0.00015539       0.00012289
O       26.87019464     -23.54533804      24.90497138      -0.00017619      -0.00017399      -0.00044316
O       27.57571522     -23.95121649      27.26856908       0.00011481      -0.00011078      -0.00008008
O       26.82192282     -21.82766473      26.73935579      -0.00002342       0.00027263       0.00009099
H       28.09130244     -24.75749260      27.09080544      -0.00024401      -0.00002452       0.00004460
H       26.89103063     -21.00058658      26.23040094      -0.00025206      -0.00003686      -0.00013568
N       23.31792157     -23.73916185      27.37443138       0.00033450       0.00004151      -0.00030085
C       23.74266476     -23.01476226      26.18724364       0.00001031       0.00000423      -0.00030875
C       24.42017245     -24.00305393      28.28354723       0.00003561      -0.00012847      -0.00010771
H       22.58912946     -23.22060615      27.85501717      -0.00023910       0.00034052       0.00021797
H       24.44796305     -23.63727885      25.62728635       0.00016467      -0.00014274       0.00006763
H       22.88157956     -22.82507312      25.53860352       0.00010127      -0.00010487       0.00013139
H       24.24307751     -22.05499857      26.39694889       0.00007144       0.00016245       0.00015735
H       25.17463814     -24.59598797      27.75786588       0.00011953      -0.00024291      -0.00010721
H       24.91652015     -23.09591478      28.66866480       0.00003974       0.00029212       0.00015800
H       24.06830131     -24.59106335      29.13735624      -0.00011849      -0.00024626       0.00024131
