17
Properties=species:S:1:pos:R:3:forces:R:3 -1911.75878=T energy=-22728.334673131143 free_energy=-22728.334673131143 pbc="F F F"
S        9.51491821     -14.28681947      -6.51172518      -0.00014521       0.00000983      -0.00001350
O       10.81691074     -14.88215902      -6.33739528       0.00004637      -0.00004131      -0.00013059
O        8.71049701     -14.46188580      -7.68650681       0.00006354      -0.00011429      -0.00003809
O        8.65238907     -14.72320966      -5.21933132      -0.00024688       0.00009224       0.00011623
O        9.64869164     -12.70200485      -6.27222359      -0.00012733       0.00003874      -0.00013401
H        7.70982389     -14.61315506      -5.42986365       0.00022467      -0.00007877      -0.00001200
H       10.40344339     -12.54320871      -5.67928196       0.00020786       0.00009373       0.00023900
N       10.59555342     -17.88490523      -6.36292368      -0.00028108       0.00006237       0.00003550
C       11.71767601     -18.74794206      -6.07055304       0.00018311      -0.00036436      -0.00004245
C        9.49272660     -18.03316571      -5.43605831      -0.00033766      -0.00040130       0.00019448
H       10.88242801     -16.91286771      -6.41715251      -0.00007256      -0.00002180      -0.00002244
H       11.41331677     -19.79744752      -6.17316950      -0.00010891       0.00033722      -0.00002534
H       12.51754222     -18.56690535      -6.79666096       0.00015937      -0.00002699      -0.00015601
H       12.13680731     -18.61629269      -5.05547165       0.00009989       0.00008432       0.00019944
H        9.02525942     -19.01776056      -5.56617515       0.00010883       0.00044447      -0.00001703
H        9.78387950     -17.94180248      -4.37363015      -0.00016811       0.00012192      -0.00022353
H        8.72991649     -17.27485866      -5.64543145       0.00039431      -0.00023568       0.00003046
