17
Properties=species:S:1:pos:R:3:forces:R:3 -1912.00612=T energy=-22728.82805561956 free_energy=-22728.82805561956 pbc="F F F"
S        5.13962801      -8.60046398     -14.68619464       0.00021409       0.00009495      -0.00043012
O        5.09543519      -9.97223500     -15.14991388       0.00000995       0.00076032       0.00027239
O        5.46841705      -7.53710658     -15.59695434       0.00003648      -0.00039375       0.00007728
O        3.70726958      -8.29128124     -13.98791361       0.00037342      -0.00023073       0.00004265
O        6.02583501      -8.46385043     -13.40943218      -0.00013798       0.00007536       0.00019284
H        3.00224335      -8.50926396     -14.62184338      -0.00016464      -0.00040926      -0.00009388
H        5.66248876      -9.11610387     -12.70299519      -0.00025877      -0.00023901       0.00009329
N        4.79585426     -10.11110341     -11.74497988       0.00005484       0.00016855       0.00034800
C        5.06448253      -9.88146537     -10.33336985       0.00010514       0.00000885       0.00040591
C        5.01049973     -11.49315093     -12.16691222      -0.00007487       0.00027683       0.00002435
H        3.86175420      -9.79977689     -11.99625437      -0.00020813      -0.00002267      -0.00009686
H        6.11438455     -10.11626738     -10.13324916       0.00022078      -0.00017028       0.00006505
H        4.90191733      -8.82886481     -10.09278524      -0.00005537       0.00022553      -0.00022767
H        4.43736425     -10.49791469      -9.67226573       0.00006960      -0.00017637       0.00004769
H        6.02679097     -11.79146973     -11.89005509       0.00034696       0.00013591      -0.00042974
H        4.30484499     -12.19388093     -11.69791583      -0.00042373       0.00032067       0.00010832
H        4.92078560     -11.55623831     -13.25236183      -0.00010766      -0.00042489      -0.00039959
