17
Properties=species:S:1:pos:R:3:forces:R:3 -1912.03670=T energy=-22728.752754710426 free_energy=-22728.752754710426 pbc="F F F"
S        6.63094948       4.27472145      -9.63173054      -0.00001211       0.00017477      -0.00031703
O        7.31123502       3.46514145      -8.65490862      -0.00020069       0.00007570      -0.00004542
O        7.33370316       5.18669611     -10.49748124      -0.00012491      -0.00011647       0.00011909
O        5.69684597       3.32022830     -10.46416621       0.00008965       0.00009698      -0.00010049
O        5.52868250       5.20101199      -8.88113423       0.00039126      -0.00012750       0.00002930
H        5.09282734       3.90984233     -11.04951287       0.00003295      -0.00006262       0.00014808
H        4.96322195       4.62938543      -8.33545269      -0.00022899      -0.00001053       0.00017781
N        4.04690657       4.82959318     -11.88198115       0.00018033       0.00026058       0.00002508
C        4.21217795       4.43853779     -13.27765027      -0.00005373       0.00018087       0.00002694
C        4.27919990       6.25510467     -11.65126733       0.00000512       0.00016980       0.00003442
H        3.12863063       4.55900320     -11.54434897      -0.00005511      -0.00009979       0.00002997
H        5.19973177       4.76165166     -13.62170439       0.00014348      -0.00010273       0.00005273
H        4.16357484       3.35159304     -13.36425399       0.00009789      -0.00015497       0.00004534
H        3.45696499       4.88954065     -13.93631401      -0.00028751       0.00011781      -0.00024307
H        5.32551667       6.47863779     -11.87200828      -0.00009600      -0.00006397       0.00000306
H        3.64705880       6.89724658     -12.28180035       0.00017554      -0.00038932       0.00009005
H        4.09431812       6.48995897     -10.60362346      -0.00005708       0.00005152      -0.00007576
