17
Properties=species:S:1:pos:R:3:forces:R:3 -1912.01321=T energy=-22728.853648987802 free_energy=-22728.853648987802 pbc="F F F"
S       27.21569459     -22.11373956      11.41658985      -0.00026537      -0.00049367       0.00041866
O       27.93878828     -23.33291168      11.70222900       0.00003600       0.00040603      -0.00007293
O       25.77166523     -22.16991638      11.36701350       0.00014114       0.00018370      -0.00006901
O       27.70364178     -20.94220837      12.32653453      -0.00016040      -0.00025371       0.00018460
O       27.76855120     -21.47694489      10.05163736       0.00013411      -0.00000487      -0.00023615
H       27.44221449     -21.15101975      13.29146174       0.00001653       0.00010465      -0.00019886
H       27.55839104     -22.08057866       9.31598662       0.00001598       0.00006484       0.00006508
N       26.94210921     -21.64422401      14.81221063      -0.00012222       0.00001459      -0.00017723
C       27.62422005     -22.91499418      15.07090160      -0.00002241       0.00001776      -0.00008341
C       25.48372806     -21.76637582      14.73961567       0.00012033       0.00024207      -0.00000884
H       27.20154667     -20.95835619      15.51399791      -0.00003062       0.00004120       0.00000646
H       27.59911064     -23.52273852      14.16353182      -0.00000720       0.00006931      -0.00001717
H       28.66748944     -22.72618191      15.33237530      -0.00031009      -0.00014526       0.00010453
H       27.15642360     -23.47999920      15.88959313       0.00028396       0.00001424       0.00005232
H       25.21383266     -22.24273610      13.79434092      -0.00004609      -0.00001334       0.00017254
H       25.07367600     -22.36234555      15.56726038       0.00001575      -0.00008939      -0.00009206
H       25.02929072     -20.77388797      14.76931470       0.00020029      -0.00015870      -0.00004859
