17
Properties=species:S:1:pos:R:3:forces:R:3 -1912.06368=T energy=-22728.752754710426 free_energy=-22728.752754710426 pbc="F F F"
S        6.92829008     -13.91005719      -7.05308679       0.00016480      -0.00028262      -0.00004435
O        7.87006477     -14.28278267      -8.07739607       0.00007474       0.00010967      -0.00000381
O        6.43583996     -12.56430193      -6.91587351       0.00002557      -0.00020540       0.00015032
O        5.67337434     -14.91625515      -7.27478374      -0.00022832       0.00040615       0.00028653
O        7.43090504     -14.37291798      -5.63545509       0.00008903      -0.00010113      -0.00004719
H        5.02933393     -14.77035892      -6.56188641       0.00022020      -0.00022016      -0.00039884
H        7.63134934     -15.37886817      -5.69022441      -0.00009240       0.00007132       0.00017215
N        7.82853790     -16.98906576      -5.72714969      -0.00017415       0.00004971      -0.00022257
C        9.20912823     -17.22040306      -5.31656139      -0.00006735       0.00027771      -0.00024390
C        7.51918051     -17.54068925      -7.04596775       0.00003548      -0.00010175      -0.00015350
H        7.18588393     -17.35114658      -5.02976159       0.00010359       0.00011763      -0.00017009
H        9.87879544     -16.84074988      -6.09467058      -0.00055872       0.00012453      -0.00057236
H        9.41675078     -16.67225736      -4.39582505      -0.00011357      -0.00061835       0.00013378
H        9.43281141     -18.28540880      -5.16377628       0.00042377       0.00013554       0.00085540
H        8.11487235     -17.01233324      -7.79394734      -0.00037453      -0.00030840      -0.00005549
H        7.74186142     -18.61506204      -7.12118248       0.00019224       0.00038344       0.00000982
H        6.46595402     -17.37753799      -7.27181040       0.00027965       0.00016218       0.00030399
