17
Properties=species:S:1:pos:R:3:forces:R:3 -1911.74253=T energy=-22728.35163177618 free_energy=-22728.35163177618 pbc="F F F"
S        4.21139127       4.02173828     -12.76211183       0.00012551      -0.00007869      -0.00048473
O        5.45940692       3.48091511     -13.22455827      -0.00004756       0.00012878       0.00002813
O        2.92498158       3.50125966     -13.13824919      -0.00022435      -0.00012667       0.00007658
O        4.30434972       4.05350247     -11.15478923       0.00011450      -0.00007589       0.00041434
O        4.16369737       5.60498678     -13.08337888      -0.00016719      -0.00001311      -0.00002004
H        3.39967499       4.11093541     -10.80442251      -0.00006677       0.00004274      -0.00002749
H        5.01564860       5.99849248     -12.82768109       0.00024451       0.00009649       0.00006663
N        4.02720126       5.47176526     -16.23392747       0.00010048      -0.00005215       0.00013984
C        5.16599018       4.59439630     -16.45839887      -0.00014961      -0.00004357       0.00014365
C        2.74422253       4.78782154     -16.28752737      -0.00001442      -0.00011890       0.00005620
H        4.12150652       5.90817891     -15.32272876      -0.00005785      -0.00016851      -0.00024250
H        5.10174717       4.15712871     -17.46208055       0.00008141      -0.00006539      -0.00010213
H        6.08971835       5.18283382     -16.42395299       0.00007947       0.00008915      -0.00001825
H        5.24773534       3.77512638     -15.72588676      -0.00006802       0.00011298      -0.00005679
H        2.59495866       4.35808676     -17.28548129       0.00008155       0.00006191       0.00024682
H        2.64078593       3.98540805     -15.53958390       0.00003163       0.00026438      -0.00019181
H        1.94082350       5.51595720     -16.12913265      -0.00006322      -0.00005358      -0.00002851
