17
Properties=species:S:1:pos:R:3:forces:R:3 -1911.74983=T energy=-22728.209113936213 free_energy=-22728.209113936213 pbc="F F F"
S       25.86058726     -21.48304042      26.22945645      -0.00021474      -0.00018306      -0.00039677
O       25.53997460     -20.82147258      24.99347802       0.00002242       0.00013471       0.00015426
O       25.04063791     -21.42415305      27.40871162      -0.00018296       0.00004655       0.00015473
O       26.13959915     -23.02171978      25.84592321       0.00018793      -0.00037304       0.00046092
O       27.33220025     -21.01725039      26.69602908       0.00049722       0.00022213      -0.00036712
H       26.41643276     -23.49189918      26.65083936      -0.00014742       0.00015429      -0.00039539
H       27.83341485     -20.76356526      25.90271471      -0.00014892       0.00000259       0.00034889
N       21.28614258     -21.94352353      24.86347806       0.00015772       0.00009402       0.00015609
C       22.52169340     -22.57765974      25.29078223       0.00007606       0.00002053       0.00019020
C       20.93882229     -22.28151352      23.49763414       0.00003526       0.00003442      -0.00001432
H       20.52859442     -22.20797600      25.48483764       0.00015195      -0.00003320      -0.00015725
H       23.33509612     -22.23961426      24.64028097      -0.00009737      -0.00011526      -0.00015683
H       22.77811551     -22.27271981      26.31048202      -0.00011477      -0.00015947       0.00001726
H       22.49831473     -23.68097688      25.25070330       0.00002736       0.00025028       0.00012711
H       21.70962802     -21.88707093      22.82489205      -0.00035764      -0.00009190       0.00028690
H       20.85108721     -23.36676455      23.30441085       0.00003126      -0.00009011      -0.00016680
H       19.99132187     -21.80546307      23.22531751       0.00007667       0.00008678      -0.00024211
