17
Properties=species:S:1:pos:R:3:forces:R:3 -1911.99511=T energy=-22728.828057241484 free_energy=-22728.828057241484 pbc="F F F"
S       21.91473513     -22.54621905       3.40727485       0.00055191       0.00038128      -0.00003828
O       21.27692393     -23.76282031       2.94707620      -0.00027955      -0.00036407      -0.00009722
O       21.11985995     -21.41008312       3.78893118       0.00014511      -0.00014877       0.00003558
O       22.89165964     -22.96043813       4.63564497      -0.00012434       0.00017151       0.00003810
O       23.02113887     -22.07706498       2.41232165      -0.00036097       0.00024602       0.00033125
H       22.36821681     -23.44937326       5.29398164       0.00005876       0.00001863      -0.00025991
H       23.68103855     -22.85496045       2.28608962      -0.00004137      -0.00021503      -0.00014763
N       24.62723716     -24.17857501       2.39270919      -0.00007206       0.00008869      -0.00002453
C       25.98620806     -23.91565455       1.94364955      -0.00027448       0.00009614       0.00031456
C       23.98274235     -25.28946243       1.69652559      -0.00011016       0.00003952      -0.00026869
H       24.59334066     -24.31718185       3.39881934       0.00025618       0.00023106       0.00003037
H       25.96038403     -23.65427449       0.88133318      -0.00033142       0.00009849       0.00029271
H       26.39809370     -23.06528534       2.49091829       0.00023608      -0.00001618      -0.00012568
H       26.65489507     -24.77950674       2.07380818       0.00020124      -0.00018337       0.00007484
H       24.02815528     -25.10270689       0.61876671       0.00008785      -0.00031357       0.00003723
H       24.46677100     -26.25537469       1.90066230      -0.00009576      -0.00014713      -0.00026910
H       22.93300980     -25.33781299       1.98975803       0.00015303       0.00001697       0.00007622
