17
Properties=species:S:1:pos:R:3:forces:R:3 -1911.76460=T energy=-22728.285556579172 free_energy=-22728.285556579172 pbc="F F F"
S        6.84725426      -7.02810672     -13.23820138       0.00008762      -0.00024877       0.00008898
O        8.16604621      -7.55720682     -13.01718410      -0.00038242       0.00023767       0.00006658
O        6.08004774      -7.23826414     -14.43719773      -0.00015604      -0.00014155      -0.00042742
O        5.96647383      -7.48777949     -11.96585231      -0.00000235      -0.00051467      -0.00010401
O        6.89459684      -5.43499781     -13.01002938       0.00021565       0.00048849       0.00030521
H        5.04039451      -7.24638864     -12.13687707       0.00017954       0.00024109       0.00005353
H        7.67839859      -5.23111174     -12.47190659      -0.00000311      -0.00006461      -0.00010674
N        6.21663457     -11.31051936     -13.92973022      -0.00007582       0.00057936       0.00009723
C        7.28043820     -10.52231348     -14.53245181       0.00000489       0.00010818       0.00034127
C        5.23434227     -10.47565311     -13.25680258       0.00027537      -0.00027773       0.00030290
H        5.76055083     -11.87411981     -14.64072156      -0.00011671      -0.00013244      -0.00008679
H        7.82189390      -9.99528844     -13.74034613      -0.00018981      -0.00023390      -0.00012471
H        7.99155327     -11.18060835     -15.04092406       0.00016497      -0.00010079      -0.00009829
H        6.92782313      -9.76348552     -15.25075343       0.00003706      -0.00002815      -0.00000355
H        5.72137665      -9.95699287     -12.42467318       0.00013112       0.00020520      -0.00005909
H        4.77481727      -9.70849977     -13.90326322      -0.00010377       0.00002922      -0.00008728
H        4.43792165     -11.09915819     -12.83914533      -0.00006600      -0.00014663      -0.00015767
