17
Properties=species:S:1:pos:R:3:forces:R:3 -1911.77387=T energy=-22728.366657694838 free_energy=-22728.366657694838 pbc="F F F"
S        6.94436953       3.58599388      -6.88873151      -0.00019414      -0.00015500       0.00009613
O        7.47429148       3.24504999      -8.18471466       0.00015658      -0.00002187      -0.00023496
O        6.43014057       4.88332535      -6.55559431      -0.00010514       0.00022596       0.00002319
O        5.81104021       2.48240696      -6.55038624       0.00016648      -0.00012016      -0.00014500
O        8.05311478       3.22367358      -5.78142151       0.00012374      -0.00004351       0.00008701
H        5.21447507       2.85361131      -5.87762394      -0.00013393       0.00011603       0.00020760
H        8.64050811       2.54136443      -6.14982955       0.00000802      -0.00003002      -0.00000235
N        5.37635098       2.31868892     -10.10403568       0.00017473       0.00011510       0.00015418
C        5.30500870       0.97451255      -9.55875276      -0.00004165       0.00008023      -0.00046691
C        4.28673237       3.17158516      -9.66524592      -0.00000644      -0.00003144      -0.00019097
H        6.25732439       2.73791266      -9.82688540      -0.00016358      -0.00005907      -0.00010612
H        4.41613273       0.46501059      -9.95110698       0.00026776      -0.00000101       0.00030188
H        6.17638185       0.40087867      -9.89501677      -0.00013179       0.00008036       0.00005100
H        5.26678133       0.94121671      -8.45850948      -0.00016655      -0.00013814       0.00011808
H        3.33579820       2.78037776     -10.04711609       0.00000330      -0.00004726       0.00009612
H        4.20303276       3.26507950      -8.56859790      -0.00005207      -0.00002412       0.00001413
H        4.41539977       4.17376607     -10.08942369       0.00009454       0.00005368      -0.00000250
