17
Properties=species:S:1:pos:R:3:forces:R:3 -1911.70572=T energy=-22728.490728672215 free_energy=-22728.490728672215 pbc="F F F"
S        4.18162636      -8.71284717     -12.75588618       0.00000553      -0.00006365      -0.00011426
O        5.11434229      -9.69383036     -13.26234731       0.00000966       0.00002217       0.00002408
O        3.76574949      -7.62199931     -13.60108920       0.00007612       0.00001740       0.00003055
O        2.90506587      -9.44237372     -12.11803813       0.00004205      -0.00000128       0.00017419
O        4.67030710      -8.15621690     -11.33683772      -0.00014275      -0.00008309       0.00007163
H        2.29276576      -9.71588963     -12.82364885      -0.00009982      -0.00003309      -0.00009672
H        5.30581165      -7.43068938     -11.46813268       0.00011808       0.00008426      -0.00004407
N        5.78890156     -11.76381748     -11.16188355       0.00005026       0.00000441       0.00000048
C        7.10041872     -11.60370902     -10.57131298      -0.00010347       0.00000501       0.00010961
C        4.70606442     -11.43302255     -10.25283652      -0.00001001      -0.00000593      -0.00004412
H        5.71315967     -11.20451522     -12.00495525      -0.00000831       0.00000580       0.00000031
H        7.22236218     -12.31513627      -9.74490871       0.00000853       0.00000233      -0.00003326
H        7.86885342     -11.83554948     -11.31656406       0.00009012      -0.00003271      -0.00008655
H        7.29575273     -10.59015927     -10.17611371      -0.00000291       0.00003304      -0.00000735
H        4.68776364     -12.15099755      -9.42343582       0.00000947      -0.00001065      -0.00000265
H        4.77955477     -10.42212990      -9.82222638      -0.00001561       0.00005096       0.00001534
H        3.74796027     -11.51561174     -10.77472676      -0.00002697       0.00000514       0.00000274
