17
Properties=species:S:1:pos:R:3:forces:R:3 -1912.05689=T energy=-22728.860251033508 free_energy=-22728.860251033508 pbc="F F F"
S       -4.36766865     -15.10833202      20.03312320       0.00039509       0.00000160      -0.00014600
O       -3.82402665     -16.42913683      20.26034106      -0.00017715       0.00041294      -0.00006688
O       -4.79588407     -14.76162330      18.69622269       0.00014871      -0.00009513       0.00027370
O       -5.47998269     -14.76926575      21.07728874       0.00014269       0.00019113       0.00020176
O       -3.32528333     -14.00996581      20.56748691       0.00006422      -0.00028934      -0.00033936
H       -6.31324883     -15.29312303      20.80909397      -0.00018109      -0.00020372      -0.00005834
H       -2.52423331     -14.04048191      20.01306294      -0.00030733       0.00000159       0.00018254
N       -7.46185646     -16.22790819      19.99595268      -0.00026096       0.00010210      -0.00009617
C       -8.83514997     -15.94986681      20.38887551       0.00010765       0.00002792       0.00007713
C       -7.08573017     -17.63295283      20.14151987      -0.00021179      -0.00009419       0.00000257
H       -7.28203680     -15.90818937      19.04691383      -0.00003997      -0.00011163       0.00012493
H       -8.95383593     -16.19957689      21.44764713      -0.00001750      -0.00003670      -0.00004972
H       -9.04162026     -14.88434815      20.27002901       0.00006336       0.00002161      -0.00005510
H       -9.57536557     -16.52381651      19.81097971       0.00023215      -0.00005357       0.00002801
H       -7.28856102     -17.94724600      21.17019535       0.00021399       0.00008328      -0.00013577
H       -7.64077595     -18.29467182      19.46145283       0.00001498      -0.00005905      -0.00007261
H       -6.01521441     -17.74343663      19.95932451      -0.00018717       0.00010124       0.00012904
