17
Properties=species:S:1:pos:R:3:forces:R:3 -1911.73884=T energy=-22728.239935072834 free_energy=-22728.239935072834 pbc="F F F"
S       27.10677714     -23.30997806      26.38774562      -0.00006861       0.00032595       0.00022120
O       27.63067051     -24.08088124      25.29274186       0.00002253      -0.00013053       0.00003874
O       25.95781701     -22.44738833      26.29147981       0.00026363      -0.00006568       0.00001180
O       26.87553952     -24.34864108      27.59558931       0.00011933       0.00006014      -0.00025856
O       28.29448756     -22.39544125      26.98023725       0.00015435      -0.00012964      -0.00016416
H       26.42853875     -23.88001797      28.32149398       0.00002664       0.00001988      -0.00008832
H       29.14116194     -22.77575979      26.69086750      -0.00048813       0.00000881       0.00012368
N       23.51858914     -24.39530299      23.84990903      -0.00021744       0.00002577       0.00000106
C       24.89008193     -24.09489803      23.46479459       0.00010145       0.00026742       0.00015491
C       23.38778430     -24.59162139      25.28531223       0.00009067      -0.00007239      -0.00022624
H       22.90900615     -23.63899218      23.55458334      -0.00007228       0.00000633      -0.00004914
H       25.51938803     -24.96262125      23.68746265       0.00006582      -0.00041097       0.00007859
H       24.94461945     -23.91131339      22.38744361      -0.00002424       0.00003418      -0.00015694
H       25.32281507     -23.23296462      23.99741573       0.00013284       0.00018600       0.00010894
H       23.93153935     -25.49968419      25.57118352       0.00001080      -0.00012869       0.00009926
H       23.78532103     -23.75630135      25.88393016       0.00013637       0.00011840       0.00006916
H       22.33604657     -24.74802575      25.54600992      -0.00025374      -0.00011496       0.00003602
