17
Properties=species:S:1:pos:R:3:forces:R:3 -1911.78105=T energy=-22728.338525203013 free_energy=-22728.338525203013 pbc="F F F"
S        7.43506723       1.22158579      -6.63790304       0.00020888       0.00002514      -0.00000189
O        8.47439155       0.35934536      -6.16541107      -0.00035906      -0.00006831       0.00001919
O        7.46667441       1.77572088      -7.97377987      -0.00003946      -0.00005829       0.00035566
O        6.04171543       0.49417109      -6.37991401      -0.00001764       0.00039637      -0.00006503
O        7.20069974       2.43606337      -5.60241810       0.00054151      -0.00037903       0.00033523
H        5.31859535       1.13061209      -6.51410290      -0.00026348       0.00068747       0.00009316
H        7.99369500       3.00055766      -5.59811049      -0.00010863      -0.00014731      -0.00021833
N        7.37752455       2.60013868     -10.72871842      -0.00004845      -0.00020741       0.00014063
C        7.53233605       1.62699184     -11.78709061       0.00000444       0.00009310      -0.00008202
C        6.00095825       2.97033104     -10.48561907      -0.00012305      -0.00006755       0.00002863
H        7.77484546       2.25097179      -9.86427482       0.00004011       0.00007529      -0.00014243
H        7.21700538       2.06731612     -12.74148344      -0.00015719       0.00010576      -0.00017018
H        8.58986190       1.35802939     -11.88326529       0.00034547       0.00047388      -0.00023960
H        6.95106227       0.69820389     -11.63649626       0.00018719      -0.00010321       0.00022176
H        5.59787387       3.51399010     -11.34985886      -0.00006533       0.00005256       0.00037380
H        5.33816343       2.10809347     -10.28458704      -0.00000912      -0.00005268      -0.00036940
H        5.95596874       3.63908203      -9.61883350      -0.00013615      -0.00082582      -0.00027904
