17
Properties=species:S:1:pos:R:3:forces:R:3 -1911.76750=T energy=-22728.351631573438 free_energy=-22728.351631573438 pbc="F F F"
S       29.94777366     -21.82398816       7.45499788       0.00008491       0.00036992       0.00024933
O       30.67013973     -23.06475592       7.37813515      -0.00008142      -0.00013733      -0.00007293
O       28.62409238     -21.63516724       6.92954378       0.00004303      -0.00010335       0.00005275
O       29.97153610     -21.38928798       9.01148684      -0.00023368       0.00000401      -0.00000578
O       30.85549240     -20.65880188       6.81345968       0.00004557      -0.00015452      -0.00009960
H       29.50277422     -20.54201237       9.10339893       0.00007715      -0.00005406      -0.00005008
H       31.78586563     -20.92933580       6.88902193       0.00003471       0.00009723      -0.00004410
N       28.14766010     -23.67626035      10.19709428      -0.00008521       0.00001614      -0.00012587
C       27.01587632     -23.53418784       9.29382654      -0.00002480       0.00002742       0.00016201
C       29.04434291     -24.76556630       9.84206266      -0.00014588      -0.00014605      -0.00001543
H       28.67778602     -22.81105568      10.20036358      -0.00004803      -0.00001146       0.00000880
H       26.40575316     -24.44505669       9.32182703       0.00009799      -0.00001325       0.00002998
H       26.37880512     -22.71135010       9.63705417       0.00003401       0.00003693      -0.00009155
H       27.30304920     -23.33906947       8.24792451      -0.00001463       0.00007773      -0.00002781
H       28.50533127     -25.71951852       9.88980834      -0.00006822      -0.00014296      -0.00002673
H       29.48844175     -24.66193337       8.83906761       0.00004758       0.00004816      -0.00003943
H       29.85521345     -24.81896532      10.57714182       0.00023692       0.00008528       0.00009647
