17
Properties=species:S:1:pos:R:3:forces:R:3 -1912.03848=T energy=-22728.792336573555 free_energy=-22728.792336573555 pbc="F F F"
S       28.46433464     -23.47353995       8.65154744       0.00041937       0.00029485      -0.00006745
O       28.24207149     -24.89538861       8.72419828      -0.00011450      -0.00036812       0.00014240
O       29.23555218     -22.87683008       7.59148201      -0.00027049      -0.00010395       0.00003970
O       26.97500422     -22.82809123       8.65245543       0.00016695       0.00005358      -0.00023040
O       29.02694455     -22.92367502      10.01359655      -0.00009263      -0.00015009       0.00050595
H       27.06284957     -21.86030887       8.61647842      -0.00024771       0.00019201       0.00005856
H       28.33922246     -23.15150466      10.74463330      -0.00006126      -0.00000361      -0.00052206
N       27.03555425     -23.52300025      11.64437384      -0.00017300       0.00008967       0.00008991
C       26.97833186     -22.73043365      12.86350421       0.00002103       0.00034583      -0.00006121
C       27.01985113     -24.96446571      11.88024388      -0.00004707      -0.00015169      -0.00015312
H       26.29631471     -23.25935362      10.99900383       0.00013164      -0.00014414      -0.00004368
H       27.85588827     -22.96189336      13.47512267      -0.00013480       0.00001568      -0.00008497
H       27.00965659     -21.66717756      12.61635417      -0.00006482       0.00025868       0.00058798
H       26.07613313     -22.92953317      13.46074382       0.00008146       0.00021286      -0.00011262
H       27.83604399     -25.21915761      12.56415256       0.00024632      -0.00033318      -0.00009589
H       26.07585155     -25.30958940      12.32597087      -0.00002056       0.00012140      -0.00001649
H       27.18886655     -25.48823791      10.93824350       0.00016025      -0.00032999      -0.00003661
