17
Properties=species:S:1:pos:R:3:forces:R:3 -1911.98170=T energy=-22728.737693717638 free_energy=-22728.737693717638 pbc="F F F"
S        3.44915697      -7.96567176     -18.29997754       0.00020582      -0.00020040       0.00009181
O        3.97599492      -9.09235075     -19.01803755       0.00004256      -0.00009704      -0.00022244
O        2.89743868      -6.82551619     -19.00397621      -0.00010407       0.00013912      -0.00006137
O        2.32059095      -8.52644957     -17.30112446      -0.00031087       0.00043651       0.00022009
O        4.48863820      -7.45178543     -17.23139887      -0.00002071       0.00010693      -0.00025845
H        1.67495061      -7.81647623     -17.13524259       0.00024858      -0.00021975      -0.00000232
H        5.13696033      -6.82693841     -17.71309818      -0.00001348      -0.00018687       0.00018410
N        6.15179875      -5.68960812     -18.37596786       0.00023083       0.00001264      -0.00034252
C        5.88047332      -5.41308862     -19.78484680       0.00037012       0.00008935      -0.00002170
C        7.50353592      -6.17814298     -18.12918930       0.00024918       0.00007083       0.00011866
H        5.96499815      -4.86572604     -17.81340270      -0.00008282       0.00000520      -0.00002398
H        6.06550433      -6.32670389     -20.35737037      -0.00058821      -0.00017924       0.00010102
H        4.83013468      -5.14825662     -19.91115179       0.00046870      -0.00043944      -0.00001792
H        6.51170861      -4.61334195     -20.19928165      -0.00014812       0.00037159       0.00023431
H        7.68097967      -7.05092973     -18.76536834      -0.00025053       0.00009169       0.00033998
H        8.27843590      -5.42938557     -18.34563104      -0.00011396       0.00027418      -0.00012148
H        7.59169579      -6.49818190     -17.08934669      -0.00018314      -0.00027528      -0.00021777
