17
Properties=species:S:1:pos:R:3:forces:R:3 -1912.01721=T energy=-22728.83685375171 free_energy=-22728.83685375171 pbc="F F F"
S        5.76395639      -3.78200007     -16.86668252       0.00031436       0.00018206      -0.00008477
O        6.30523942      -4.35393467     -18.07967308      -0.00039804       0.00045776       0.00017333
O        4.56730376      -2.97555907     -16.95800250       0.00006843      -0.00006294       0.00024450
O        5.61810429      -4.86652601     -15.75197518       0.00061792      -0.00008667       0.00043851
O        6.91335369      -2.95452387     -16.11134506      -0.00010458      -0.00013348      -0.00004683
H        4.85807304      -5.49103015     -16.02571163      -0.00008971      -0.00031368      -0.00030001
H        7.16965466      -2.19304770     -16.66322212      -0.00030416       0.00004640       0.00014773
N        3.70452429      -6.53875145     -16.64078710       0.00001970      -0.00006583      -0.00025313
C        3.31615045      -6.05507839     -17.96675119       0.00005725      -0.00033051       0.00006866
C        2.57452877      -6.66833150     -15.72713449       0.00006595       0.00024631       0.00003746
H        4.19696551      -7.42359146     -16.71745625      -0.00004401      -0.00002432       0.00009944
H        2.83604103      -5.07894010     -17.85561592      -0.00007131       0.00030317      -0.00035489
H        4.20684090      -5.92122069     -18.58181020       0.00012505      -0.00046164      -0.00021330
H        2.61685842      -6.73034737     -18.47922359      -0.00024484      -0.00012513      -0.00004237
H        2.10032059      -5.68892138     -15.61327990       0.00010547       0.00007362      -0.00010183
H        1.81390563      -7.37770116     -16.08542322      -0.00017067       0.00006825       0.00023854
H        2.92604069      -6.98895609     -14.74471238       0.00005336       0.00022671      -0.00005120
