17
Properties=species:S:1:pos:R:3:forces:R:3 -1911.97824=T energy=-22728.860250628026 free_energy=-22728.860250628026 pbc="F F F"
S       28.45723000     -22.95568325      11.83812445      -0.00028460      -0.00033877       0.00021418
O       29.27656734     -21.79470543      11.57038857       0.00036848       0.00012207      -0.00011718
O       27.13580349     -22.75249196      12.38967596      -0.00020158       0.00009829       0.00008541
O       28.34262569     -23.85256013      10.51111702       0.00035101      -0.00028598       0.00002760
O       29.25395786     -24.01919052      12.66072726       0.00001180       0.00013509      -0.00006437
H       27.87145420     -23.34307938       9.82672638      -0.00032512       0.00026436      -0.00022215
H       29.54998341     -23.56864952      13.52681384      -0.00000254      -0.00007196       0.00000006
N       29.90916498     -22.45916244      14.74915477      -0.00008206      -0.00006416       0.00011159
C       30.98757626     -22.88046032      15.63071580      -0.00001788      -0.00000942       0.00029504
C       28.66743970     -22.14543837      15.45379393       0.00015725       0.00018866       0.00002935
H       30.19722127     -21.67401951      14.16967275       0.00006547      -0.00007485       0.00008715
H       30.67990275     -23.79402691      16.14856859      -0.00014926       0.00006523      -0.00006208
H       31.87508168     -23.11278259      15.03873412       0.00009169       0.00015419      -0.00004628
H       31.24981147     -22.12401990      16.38591664      -0.00004851       0.00001054      -0.00019188
H       28.38258639     -23.00670452      16.06628604       0.00009088      -0.00030174      -0.00011441
H       28.76077045     -21.26902661      16.11077734      -0.00003442       0.00004800      -0.00004062
H       27.87186006     -21.96947163      14.72751327       0.00000960       0.00006019       0.00000836
