17
Properties=species:S:1:pos:R:3:forces:R:3 -1912.02329=T energy=-22728.788403608174 free_energy=-22728.788403608174 pbc="F F F"
S       27.08494244     -21.36683898      13.26679509       0.00046540      -0.00009458       0.00038086
O       26.47459614     -21.45011677      11.96371560      -0.00017416      -0.00012222      -0.00032973
O       26.93177742     -20.20855968      14.11050131      -0.00019848       0.00012589       0.00007033
O       26.72006144     -22.67429684      14.05742194       0.00023738       0.00016212       0.00026859
O       28.68810538     -21.55228364      13.07744891       0.00007041      -0.00001072      -0.00007917
H       27.35209482     -22.72690296      14.86631863      -0.00015643      -0.00011182      -0.00024373
H       28.83556806     -21.98946482      12.22201073      -0.00013844       0.00000153       0.00009458
N       28.54966257     -22.60136681      15.96834491      -0.00033126      -0.00007294       0.00011896
C       28.84831092     -23.88355566      16.58832291       0.00006591       0.00037551      -0.00015098
C       28.20938510     -21.55166769      16.92535125       0.00008209       0.00007612      -0.00013290
H       29.30628660     -22.30013526      15.36109998       0.00022457      -0.00006740      -0.00013396
H       27.96279601     -24.22508051      17.13313775      -0.00044008      -0.00012211       0.00015122
H       29.07656615     -24.62253215      15.81743318      -0.00005525      -0.00016699      -0.00034238
H       29.69219030     -23.83224213      17.29226733       0.00038578       0.00008523       0.00022516
H       27.38175273     -21.90013383      17.55169027      -0.00005747      -0.00018392       0.00005344
H       29.05160649     -21.28796563      17.58119150      -0.00003648       0.00005201       0.00007223
H       27.87745764     -20.66403549      16.38493078       0.00005642       0.00007433      -0.00002234
