17
Properties=species:S:1:pos:R:3:forces:R:3 -1912.04424=T energy=-22728.791197171242 free_energy=-22728.791197171242 pbc="F F F"
S        8.49447195     -15.45023635      -6.69823430       0.00005984      -0.00001134      -0.00012885
O        9.01877193     -16.43979522      -7.61566064      -0.00004178       0.00032115       0.00025642
O        8.23394399     -14.10733175      -7.14063719       0.00007802      -0.00004447       0.00006068
O        7.14143633     -16.06622372      -6.04450208      -0.00053060      -0.00012219      -0.00067380
O        9.34467821     -15.39202320      -5.38980977       0.00008827      -0.00001785      -0.00045258
H        6.51519675     -16.26880541      -6.76054538       0.00042105       0.00007967       0.00062577
H        9.52209589     -16.34963740      -5.06697236      -0.00016595      -0.00009078       0.00009805
N        9.63345677     -17.84778190      -4.41164113      -0.00053824       0.00005007      -0.00008650
C       11.02573291     -18.28135585      -4.37611253      -0.00006807       0.00002424       0.00030979
C        8.76875509     -18.76077372      -5.16043823      -0.00017129      -0.00009378      -0.00020124
H        9.28018959     -17.71746275      -3.46912477      -0.00011612       0.00005446       0.00045516
H       11.40086763     -18.34674639      -5.40187526       0.00002219      -0.00008306      -0.00061113
H       11.63177788     -17.54845750      -3.84019673       0.00063999       0.00032870       0.00030231
H       11.15177523     -19.26589366      -3.90224352       0.00022138      -0.00035109       0.00013253
H        9.11101801     -18.79180457      -6.19771513      -0.00011149      -0.00000492       0.00010121
H        8.78391241     -19.78448837      -4.75920867      -0.00008246       0.00010489      -0.00005472
H        7.74469307     -18.38783577      -5.14995169       0.00029522      -0.00014378      -0.00013302
