17
Properties=species:S:1:pos:R:3:forces:R:3 -1912.03655=T energy=-22728.86025164173 free_energy=-22728.86025164173 pbc="F F F"
S       11.83080076     -21.98516327       7.04370834       0.00040735       0.00027289       0.00031205
O       12.01429539     -22.00786492       5.60931231      -0.00014587      -0.00020132      -0.00023937
O       12.99892904     -21.84411882       7.88420844       0.00019777      -0.00017444       0.00001562
O       10.75580392     -20.85321685       7.41991560      -0.00065756      -0.00058717       0.00024286
O       10.94758832     -23.18407313       7.51809952       0.00017074      -0.00018209      -0.00043428
H       11.13283935     -19.97919936       7.21039813       0.00025671       0.00051375      -0.00012562
H       11.53138715     -24.01989083       7.48160124      -0.00021776       0.00041434       0.00020080
N       12.81930221     -25.10720919       7.36672769      -0.00007826       0.00017445      -0.00007585
C       13.13772036     -25.28233125       5.95083628       0.00032020      -0.00003991       0.00033891
C       12.59880866     -26.36057873       8.07245461      -0.00002649      -0.00002547      -0.00012530
H       13.53666727     -24.55098385       7.82632228      -0.00000576      -0.00006615       0.00004229
H       12.34959600     -25.88144538       5.48395735      -0.00027005      -0.00018719      -0.00032455
H       13.15730243     -24.30788900       5.45944775      -0.00012121       0.00017703       0.00002526
H       14.09949722     -25.79003289       5.79063439       0.00005251      -0.00004418      -0.00003335
H       11.74468961     -26.87241667       7.61863300       0.00023167       0.00003418       0.00012735
H       13.46748284     -27.03547665       8.03762097      -0.00013724      -0.00008346       0.00006046
H       12.35138614     -26.15492755       9.11580282       0.00002320       0.00000475      -0.00000737
