17
Properties=species:S:1:pos:R:3:forces:R:3 -1911.78950=T energy=-22728.2947228883 free_energy=-22728.2947228883 pbc="F F F"
S        5.52896344      -7.99580249     -14.23212714      -0.00023520      -0.00016553       0.00013292
O        4.52170750      -7.88565633     -13.21185576       0.00009346       0.00007343      -0.00002515
O        5.76697451      -9.18280030     -15.01143785       0.00005692      -0.00007784      -0.00011373
O        5.28077833      -6.77007762     -15.24601401      -0.00024325       0.00022018       0.00032978
O        6.95514731      -7.58193133     -13.59805735       0.00017545      -0.00000623       0.00009806
H        5.65083846      -7.01629506     -16.11088877       0.00018978      -0.00008265      -0.00044148
H        6.80366914      -6.88785628     -12.93418472      -0.00003700       0.00002667       0.00001140
N        6.46798642     -11.43223470     -11.66074462      -0.00008111       0.00015895       0.00011998
C        7.49297991     -10.60066045     -12.27072307      -0.00019372       0.00004727       0.00005683
C        5.14286954     -11.13509544     -12.18245401       0.00001934      -0.00014374      -0.00002178
H        6.68515678     -12.41261650     -11.81185473       0.00009053      -0.00017652      -0.00006033
H        7.30380372      -9.55406884     -12.01044436      -0.00001138      -0.00004984      -0.00007864
H        8.47655122     -10.86774820     -11.87252029       0.00014539      -0.00005582       0.00000393
H        7.53096042     -10.66712866     -13.37092894       0.00003830       0.00004908      -0.00002784
H        4.87982660     -10.10603764     -11.91835085      -0.00003302       0.00015605       0.00005395
H        5.05985106     -11.22527628     -13.27818270       0.00001524      -0.00001916      -0.00002044
H        4.40296896     -11.79608059     -11.72076663       0.00001067       0.00004566      -0.00001729
