17
Properties=species:S:1:pos:R:3:forces:R:3 -1912.02887=T energy=-22728.74390264927 free_energy=-22728.74390264927 pbc="F F F"
S        6.61625783     -23.40770836       5.43722933      -0.00003977       0.00024726      -0.00004192
O        6.60709420     -24.84375872       5.54487384       0.00005662      -0.00016427      -0.00025254
O        5.97672686     -22.70950260       4.35141109      -0.00003868       0.00018966       0.00002599
O        5.96598732     -22.87825069       6.83083036      -0.00007332      -0.00023326       0.00028372
O        8.08474788     -22.85291660       5.55580209      -0.00005512       0.00009618      -0.00002320
H        5.69678355     -21.95201438       6.70922607      -0.00008063      -0.00011585       0.00019009
H        8.50939658     -23.26728909       6.39156445      -0.00001598       0.00003314       0.00001230
N        9.07733157     -23.73154982       7.86096364       0.00004484      -0.00013752      -0.00011608
C        8.46228136     -24.97130430       8.33436916       0.00000495      -0.00006056       0.00008720
C        8.75138827     -22.57612658       8.69521469      -0.00004599       0.00007583      -0.00009423
H       10.08329239     -23.84322431       7.78123102      -0.00006904      -0.00031937       0.00009324
H        7.37597763     -24.85766831       8.31077666      -0.00009127       0.00022759      -0.00065083
H        8.73079049     -25.79298136       7.66873822       0.00071909      -0.00029522       0.00026098
H        8.76101195     -25.23036130       9.36034733      -0.00057036       0.00025281       0.00039437
H        7.66918136     -22.42736939       8.67032024       0.00000745       0.00022738       0.00009196
H        9.06519061     -22.70737940       9.74073399       0.00034861       0.00005667      -0.00024563
H        9.23235134     -21.68323184       8.29194454      -0.00010142      -0.00008050      -0.00001521
