17
Properties=species:S:1:pos:R:3:forces:R:3 -1912.03386=T energy=-22728.75129254504 free_energy=-22728.75129254504 pbc="F F F"
S        7.13317350     -11.95672646     -11.57786775      -0.00010357       0.00037031      -0.00014136
O        7.71869868     -13.04614523     -12.31930881       0.00009495       0.00004578      -0.00007439
O        6.84751266     -10.67851718     -12.17817862       0.00019252      -0.00037193       0.00007486
O        5.73978820     -12.53794964     -10.97824724      -0.00029081      -0.00009012       0.00016382
O        7.95839487     -11.69364413     -10.26559873       0.00009279       0.00008152      -0.00000116
H        5.11475793     -11.79818583     -10.89840351       0.00001398      -0.00003743      -0.00000528
H        8.24512654     -12.59730511      -9.87505852      -0.00001068       0.00000654      -0.00001283
N        8.53230105     -14.05772196      -9.18375199      -0.00015819       0.00015646       0.00016481
C        9.79510852     -14.63427045      -9.63711248      -0.00014830      -0.00001875       0.00012201
C        7.37725717     -14.90363325      -9.49187615      -0.00002778      -0.00009549      -0.00002241
H        8.57139139     -13.85886686      -8.18882660       0.00010552      -0.00017296      -0.00027890
H        9.74259660     -14.77632721     -10.72086563      -0.00000420       0.00002283       0.00000318
H       10.61657917     -13.94722140      -9.42500852       0.00008164       0.00007756      -0.00001164
H       10.01374874     -15.60777087      -9.17359114       0.00010239      -0.00012818       0.00002560
H        7.37654369     -15.11024314     -10.56389180       0.00003127       0.00003540       0.00007509
H        7.39851875     -15.86254463      -8.95586752      -0.00003477       0.00012901      -0.00007863
H        6.45631641     -14.37397821      -9.24999128       0.00006305      -0.00001034      -0.00000269
