17
Properties=species:S:1:pos:R:3:forces:R:3 -1911.71645=T energy=-22728.209117991024 free_energy=-22728.209117991024 pbc="F F F"
S       31.11908408     -20.07644959      22.55839323      -0.00023497       0.00088791       0.00014434
O       29.80052430     -19.87523694      22.02072276       0.00062871      -0.00033495       0.00039744
O       31.56870422     -19.53109170      23.81018863      -0.00030488      -0.00035460      -0.00071967
O       31.35995485     -21.66842792      22.54958186      -0.00010578      -0.00022647       0.00010911
O       32.20033449     -19.60148010      21.46050546       0.00016993      -0.00001295       0.00027157
H       32.26293189     -21.84269606      22.86562274      -0.00010284       0.00004769      -0.00001289
H       31.79602212     -19.69124671      20.58106442      -0.00012115       0.00002204      -0.00012346
N       27.55524463     -20.57107933      25.73410001      -0.00024632      -0.00037452      -0.00054333
C       28.75683400     -21.11550297      25.12494402      -0.00013125      -0.00019303       0.00017011
C       26.37599417     -21.35090746      25.41521571       0.00027806      -0.00002133      -0.00004067
H       27.67025590     -20.52048286      26.74112004       0.00011642       0.00025778       0.00048715
H       28.63154076     -21.11575561      24.03712396      -0.00006954       0.00019855      -0.00005483
H       29.62211856     -20.48329805      25.34874661       0.00006878       0.00006227      -0.00017430
H       28.98931501     -22.14962762      25.43467619       0.00008325      -0.00018561       0.00008410
H       26.19669085     -21.30160113      24.33460534       0.00010454       0.00000464       0.00010121
H       26.44621574     -22.41887795      25.69329254       0.00010034       0.00008608      -0.00017944
H       25.49998032     -20.92234974      25.91266908      -0.00023329       0.00013642       0.00008344
