17
Properties=species:S:1:pos:R:3:forces:R:3 -1912.01663=T energy=-22728.86025123625 free_energy=-22728.86025123625 pbc="F F F"
S       31.14439721     -22.58636744      20.07784997      -0.00003232      -0.00002314      -0.00001448
O       30.80702700     -21.49017773      19.19727489       0.00012094       0.00002789      -0.00011122
O       30.07668548     -23.43335245      20.56187573      -0.00005245      -0.00014997       0.00004804
O       32.27336565     -23.50032996      19.39330861      -0.00007302       0.00009040      -0.00001103
O       32.05104416     -22.09552172      21.25239819       0.00007071       0.00011688       0.00013977
H       31.90358731     -23.90706001      18.58843676      -0.00005054       0.00004889       0.00004004
H       31.53328970     -21.36971294      21.74821552       0.00000778      -0.00006402      -0.00004369
N       30.41398350     -20.19377710      22.21588292       0.00001150      -0.00010192      -0.00006310
C       30.96257855     -19.17290949      23.09592510       0.00009662       0.00025558       0.00011885
C       29.24637467     -20.87668422      22.77008824       0.00018986       0.00002997      -0.00010180
H       30.19845277     -19.80798344      21.29940137      -0.00001774      -0.00007790       0.00008702
H       31.28860526     -19.64999043      24.02519558       0.00009194      -0.00001517      -0.00023250
H       31.83724195     -18.71705336      22.62766684      -0.00024599      -0.00024743       0.00021204
H       30.23863333     -18.38257026      23.34605467       0.00000028       0.00008220      -0.00005834
H       29.50839894     -21.28145534      23.75273278      -0.00005260       0.00014325      -0.00007808
H       28.38056568     -20.20998788      22.88981562       0.00003166      -0.00007425       0.00011028
H       28.97254136     -21.71179950      22.12279454      -0.00009680      -0.00004129      -0.00004195
