17
Properties=species:S:1:pos:R:3:forces:R:3 -1912.02727=T energy=-22728.77980841939 free_energy=-22728.77980841939 pbc="F F F"
S       30.20641295     -24.15077578      17.62648724       0.00010134      -0.00012783      -0.00002865
O       30.77408376     -25.44906595      17.35310819       0.00016356      -0.00065255      -0.00004290
O       29.60631886     -23.33861602      16.59781685       0.00004828       0.00061607      -0.00065839
O       29.07339484     -24.39400346      18.76675513       0.00005316      -0.00037616       0.00080365
O       31.24664215     -23.26002039      18.39978673      -0.00008346       0.00021265       0.00015260
H       28.35431737     -23.75966410      18.60860380      -0.00022553       0.00019237      -0.00001824
H       31.78344829     -23.86965326      19.02695513       0.00007914      -0.00013749      -0.00000754
N       32.41788742     -25.10935793      19.89617234       0.00047949       0.00004080      -0.00015034
C       31.52318209     -25.35290517      21.02381724      -0.00050443       0.00012819       0.00011289
C       33.80731761     -24.91650569      20.28150127       0.00003053      -0.00002440      -0.00024630
H       32.31974526     -25.83872310      19.19409430      -0.00002890       0.00037087       0.00011114
H       31.63453282     -24.53726773      21.74558780      -0.00006434      -0.00024768      -0.00002544
H       30.48848105     -25.36026513      20.67795421      -0.00000450      -0.00006361       0.00006832
H       31.73951344     -26.30090002      21.53632659      -0.00002618       0.00015277      -0.00005305
H       33.87357473     -24.03544115      20.92702472      -0.00019667       0.00011912       0.00013085
H       34.22559653     -25.77839679      20.82283513       0.00004631      -0.00012907       0.00004806
H       34.41269637     -24.73022833      19.39221290       0.00013224      -0.00007427      -0.00019670
