17
Properties=species:S:1:pos:R:3:forces:R:3 -1911.99847=T energy=-22728.836825570765 free_energy=-22728.836825570765 pbc="F F F"
S        8.79345629      -2.56808755     -25.44454699       0.00010296      -0.00027393      -0.00017531
O        9.05841360      -3.47367152     -24.34855680      -0.00024351      -0.00032568      -0.00059962
O        9.03754979      -3.02718384     -26.79371485       0.00013690       0.00049210      -0.00031281
O        7.28975317      -2.01897711     -25.32745318       0.00002074       0.00026307       0.00035051
O        9.46764983      -1.18030106     -25.20032831       0.00023681      -0.00000268       0.00038916
H        6.67109335      -2.76199658     -25.45109645      -0.00020447       0.00024047      -0.00035463
H       10.47664824      -1.30691240     -25.29213706       0.00003708      -0.00020091       0.00025702
N       12.11537225      -1.65630414     -25.31073515       0.00007024       0.00035928       0.00016458
C       12.80965337      -0.85138019     -26.30995092      -0.00033823       0.00003052      -0.00005126
C       12.27131791      -3.09584740     -25.52596945       0.00037482      -0.00006558       0.00003934
H       12.42648355      -1.40264669     -24.37790511       0.00009927      -0.00046217      -0.00007708
H       12.41218942      -1.09883586     -27.29881953      -0.00074928      -0.00013975       0.00003261
H       12.62375769       0.20864201     -26.12743027      -0.00011922      -0.00001127      -0.00047077
H       13.89528348      -1.02847949     -26.32280454      -0.00027327      -0.00013787      -0.00034572
H       11.87944485      -3.34573661     -26.51580891       0.00029364       0.00011872       0.00046465
H       13.31885486      -3.42390223     -25.47384455       0.00043714      -0.00014815       0.00036380
H       11.68385794      -3.64122602     -24.78636926       0.00011851       0.00026409       0.00032561
