17
Properties=species:S:1:pos:R:3:forces:R:3 -1911.75123=T energy=-22728.24267267949 free_energy=-22728.24267267949 pbc="F F F"
S        4.89847582      -3.38503199     -15.73327464      -0.00007422      -0.00042242      -0.00006516
O        5.64021775      -4.55197786     -16.12941388      -0.00022483      -0.00039744      -0.00012374
O        3.64478005      -3.42027809     -15.03426836      -0.00020319      -0.00044018      -0.00015569
O        5.93274714      -2.46616070     -14.89944988      -0.00007364      -0.00044304      -0.00035287
O        4.66800134      -2.46858398     -17.03689144       0.00034301       0.00074201       0.00019544
H        5.42492683      -1.76802860     -14.45192797      -0.00063442       0.00037112       0.00043757
H        5.35456913      -2.69369464     -17.68813937       0.00068956      -0.00009293      -0.00021905
N        5.75741814      -5.74340689     -11.99821676       0.00039625      -0.00022834      -0.00016235
C        6.54705072      -4.52669163     -12.05525385       0.00034595      -0.00017560       0.00041487
C        5.80743395      -6.49595512     -13.23927344      -0.00014315       0.00046191      -0.00058636
H        6.07155455      -6.32475293     -11.22740690      -0.00002045       0.00047286      -0.00036020
H        6.13307858      -3.86844172     -12.82742358      -0.00050042       0.00017817       0.00029778
H        6.48239899      -3.99676945     -11.09962131       0.00025005      -0.00002499       0.00061014
H        7.61458762      -4.68766616     -12.29179909       0.00046372      -0.00013903      -0.00066029
H        5.42140583      -5.87076519     -14.05096179      -0.00031741       0.00042630      -0.00010915
H        6.82162339      -6.82839018     -13.52643827      -0.00046569       0.00007693       0.00038225
H        5.16467285      -7.37913623     -13.16521161       0.00016877      -0.00036526       0.00045670
