17
Properties=species:S:1:pos:R:3:forces:R:3 -1911.76260=T energy=-22728.364902974732 free_energy=-22728.364902974732 pbc="F F F"
S       15.05878568     -20.52427021      17.95782780       0.00020475       0.00011071      -0.00041773
O       14.55004085     -20.84737459      16.65769915       0.00010517       0.00019681       0.00027728
O       14.40078690     -19.55295536      18.80291216       0.00018431       0.00018686       0.00015259
O       15.24464319     -21.88914999      18.75997545      -0.00035146       0.00004628      -0.00004052
O       16.61714822     -20.13060449      17.86093346       0.00038323       0.00005779       0.00021212
H       15.40399338     -21.68494806      19.69793166      -0.00066680      -0.00009371       0.00024444
H       16.68990240     -19.25389975      17.44395531       0.00013701      -0.00070284      -0.00029458
N       11.83468295     -18.34229057      18.81384450       0.00009282      -0.00009063      -0.00010020
C       12.07141211     -17.18202052      17.97871643      -0.00010202       0.00041258       0.00044411
C       11.40903539     -19.50476607      18.05543044       0.00023304      -0.00008935       0.00002110
H       12.69849532     -18.57700477      19.28936221       0.00023420       0.00019051      -0.00011034
H       11.13560491     -16.87630650      17.49505299      -0.00013697      -0.00013302       0.00021453
H       12.40565220     -16.34330201      18.59986108      -0.00043389      -0.00018545      -0.00022209
H       12.82452226     -17.35044257      17.18750007      -0.00027599       0.00029552      -0.00021009
H       10.42272626     -19.31725279      17.61337976      -0.00016102      -0.00017420       0.00023158
H       12.10422259     -19.78668105      17.24800168       0.00000215       0.00010975      -0.00019894
H       11.30727786     -20.36176636      18.73103963       0.00055158      -0.00013772      -0.00020313
