17
Properties=species:S:1:pos:R:3:forces:R:3 -1912.05965=T energy=-22728.788400972546 free_energy=-22728.788400972546 pbc="F F F"
S        4.43776410     -11.50154351     -11.23188828       0.00030074      -0.00035078      -0.00026458
O        3.95410083     -12.85774846     -11.29252519      -0.00037891       0.00017500      -0.00009105
O        3.80107075     -10.42930065     -11.95466281       0.00002891      -0.00004709       0.00049973
O        4.42878128     -11.11193695      -9.65442154       0.00031540       0.00046952      -0.00054765
O        5.97584132     -11.45224413     -11.54743927       0.00055746       0.00034885      -0.00009704
H        4.31192543     -10.14926768      -9.58897313      -0.00009944      -0.00035506       0.00064689
H        6.44880428     -12.03898331     -10.84846060      -0.00069768      -0.00022088       0.00006082
N        6.91762257     -12.92301470      -9.55891260       0.00027489       0.00029565      -0.00015000
C        8.31601258     -12.69392840      -9.22789763       0.00027442      -0.00005940      -0.00010504
C        6.59414825     -14.32672600      -9.80078262      -0.00001903       0.00030114       0.00025207
H        6.30225091     -12.53073691      -8.85221201      -0.00014329       0.00003940      -0.00029704
H        8.93441074     -13.02210789     -10.06903325       0.00036273       0.00001891      -0.00004802
H        8.49005274     -11.62651405      -9.07683745      -0.00055849       0.00004146      -0.00025506
H        8.63694265     -13.23725827      -8.32671404      -0.00003079      -0.00004655       0.00009170
H        7.26106134     -14.71356075     -10.57818557      -0.00017614       0.00004714       0.00063463
H        6.71350899     -14.94920488      -8.90228399      -0.00026287      -0.00001818      -0.00015816
H        5.56793348     -14.40354008     -10.16284967       0.00025237      -0.00063877      -0.00017211
