17
Properties=species:S:1:pos:R:3:forces:R:3 -1911.99638=T energy=-22728.860246978693 free_energy=-22728.860246978693 pbc="F F F"
S       23.91640688     -23.26827672       0.25232483      -0.00030122      -0.00015694       0.00027899
O       24.13366767     -23.42461813      -1.16862830       0.00013235       0.00011224      -0.00053263
O       23.58868998     -21.95326896       0.75740031      -0.00019196       0.00043344       0.00030351
O       22.80343458     -24.31488946       0.74664720       0.00055619       0.00011045       0.00069826
O       25.08656627     -23.90934530       1.06611440       0.00001007      -0.00006452       0.00020111
H       21.95330851     -24.09276565       0.32484865      -0.00017650      -0.00042662      -0.00081504
H       25.94624603     -23.44566640       0.77179994       0.00007614       0.00015345       0.00004596
N       27.10870055     -22.52132268      -0.03382554       0.00003737       0.00001550       0.00007182
C       28.46790095     -23.01843301       0.11809401      -0.00012040       0.00024354       0.00000313
C       26.94620216     -21.12919210       0.38142479       0.00021824      -0.00021181      -0.00017617
H       26.77808660     -22.64875102      -0.98759329      -0.00025887       0.00008266      -0.00005998
H       28.74165052     -22.97141894       1.17652311       0.00002234      -0.00036301       0.00025644
H       28.51279180     -24.06366691      -0.19425292      -0.00001591       0.00018547       0.00000815
H       29.20681266     -22.44123610      -0.45823132      -0.00006156      -0.00023839      -0.00033627
H       27.30845795     -21.02346018       1.40887762      -0.00019156       0.00009975       0.00010843
H       27.50262137     -20.42730306      -0.25589576       0.00032229       0.00004893      -0.00010428
H       25.88667976     -20.86723370       0.36808749      -0.00005698      -0.00002441       0.00004862
