17
Properties=species:S:1:pos:R:3:forces:R:3 -1912.06960=T energy=-22728.79233535711 free_energy=-22728.79233535711 pbc="F F F"
S        5.12539292      -3.59970658     -12.02147389       0.00013448       0.00027060      -0.00020466
O        3.86673832      -3.94498960     -11.41081936      -0.00024629       0.00001419       0.00022268
O        5.45232936      -2.24263350     -12.37647729       0.00013387       0.00022316      -0.00022292
O        6.24595746      -4.16329935     -10.99123301       0.00023054       0.00034481       0.00008476
O        5.40223543      -4.49869786     -13.28213171       0.00014519       0.00000036       0.00018530
H        7.12420317      -3.96633516     -11.35935306      -0.00034094      -0.00050548      -0.00010827
H        5.40306446      -5.47838009     -12.96684074       0.00000560      -0.00015884       0.00012221
N        5.47631547      -6.89453672     -12.16891249       0.00018407      -0.00017491      -0.00001469
C        6.19939543      -7.90445052     -12.92719007       0.00010002      -0.00000858      -0.00007480
C        4.12230192      -7.29739325     -11.79727809      -0.00004593      -0.00028998       0.00012575
H        6.00032942      -6.60573696     -11.34763453      -0.00007843      -0.00014314      -0.00001300
H        5.65844159      -8.09956461     -13.85834239       0.00013641       0.00020267       0.00001216
H        7.19346777      -7.53329680     -13.18539035      -0.00023678       0.00012265       0.00001064
H        6.30578037      -8.85382011     -12.38156849      -0.00021701       0.00030208      -0.00013590
H        3.57841742      -7.58503683     -12.70295549       0.00013410       0.00012991       0.00005331
H        4.11054164      -8.14952790     -11.10255194       0.00001109       0.00000624       0.00038299
H        3.60389763      -6.45183491     -11.34277001      -0.00004988      -0.00033566      -0.00042573
