17
Properties=species:S:1:pos:R:3:forces:R:3 -1911.74459=T energy=-22728.240252159172 free_energy=-22728.240252159172 pbc="F F F"
S        0.26815572     -20.92432599      22.28142620       0.00016958       0.00070973      -0.00027157
O        0.36696105     -21.18924930      20.87213129      -0.00016564       0.00013492       0.00030804
O       -0.93177379     -21.11757244      23.05013977      -0.00000256      -0.00011505      -0.00009608
O        1.46265574     -21.76062203      22.97229806       0.00014669       0.00014701      -0.00036132
O        0.74700691     -19.41549470      22.58090474      -0.00006980      -0.00046167      -0.00006006
H        1.24786062     -21.86866992      23.91420332      -0.00009211      -0.00017682       0.00056647
H        1.61245232     -19.27951199      22.15873921       0.00004855      -0.00017374      -0.00004140
N       -3.47622242     -19.19519430      19.93925503       0.00011817       0.00013081       0.00006668
C       -2.28516126     -18.86921188      20.70721258       0.00014782       0.00002131       0.00006169
C       -3.72816035     -20.62268039      19.88966881       0.00002953       0.00010630       0.00025359
H       -4.28224636     -18.71887225      20.33169575      -0.00009868       0.00005274       0.00006145
H       -1.41285556     -19.30827063      20.21236458       0.00001003      -0.00015121      -0.00008181
H       -2.14303817     -17.78396170      20.73069252      -0.00011125       0.00011924       0.00004397
H       -2.29578432     -19.24597885      21.74251457      -0.00013728       0.00002575      -0.00013572
H       -2.89100463     -21.11361859      19.37888313       0.00006451      -0.00024818      -0.00035539
H       -3.83897614     -21.09954607      20.88074479      -0.00005235      -0.00006626       0.00013864
H       -4.63259159     -20.82407841      19.30611551      -0.00000499      -0.00005466      -0.00009741
