17
Properties=species:S:1:pos:R:3:forces:R:3 -1911.71641=T energy=-22728.461768795896 free_energy=-22728.461768795896 pbc="F F F"
S       28.60404352     -21.94781475       6.43153076      -0.00033090       0.00008095      -0.00009048
O       29.45880393     -23.03369694       6.01860848      -0.00021613       0.00028265       0.00022218
O       28.29612711     -20.88395937       5.50916773       0.00008428      -0.00028074       0.00007382
O       27.25516738     -22.51502251       7.09361870       0.00027494      -0.00001326      -0.00005814
O       29.10658189     -21.33889380       7.82901384       0.00053424       0.00003824      -0.00007917
H       26.65097560     -22.83429754       6.39891756      -0.00017759      -0.00005925      -0.00015794
H       29.90173143     -20.79577734       7.68285751      -0.00020248      -0.00006336       0.00012580
N       28.31787652     -24.58699004       9.17186141       0.00000306       0.00005198       0.00018918
C       29.77089174     -24.54146014       9.15461703      -0.00048733      -0.00026976       0.00064507
C       27.72659913     -23.67283368      10.13532750       0.00032921       0.00054052      -0.00033481
H       27.97177033     -24.35125575       8.24878292      -0.00009718       0.00001532       0.00004673
H       30.16563780     -24.95675625      10.08947686       0.00008615       0.00003656      -0.00008237
H       30.14195299     -25.16937767       8.33795052       0.00020387       0.00006753      -0.00017411
H       30.18291550     -23.52694792       9.02811771      -0.00005714      -0.00000027      -0.00016817
H       27.93603094     -24.02259663      11.15365698       0.00012325      -0.00058300       0.00009986
H       28.09037972     -22.63678922      10.04734334      -0.00009937       0.00030777      -0.00008214
H       26.63868598     -23.66910259      10.01135255       0.00002909      -0.00015214      -0.00017554
