17
Properties=species:S:1:pos:R:3:forces:R:3 -1912.03791=T energy=-22728.755987409688 free_energy=-22728.755987409688 pbc="F F F"
S        5.32574984      -3.50590117     -14.21107173       0.00030874       0.00027175       0.00006834
O        6.53323381      -4.29147640     -14.25158804      -0.00019729      -0.00002337      -0.00009692
O        4.92471211      -2.64770179     -15.29690549       0.00011659      -0.00015354       0.00011891
O        4.13096849      -4.57739121     -13.95841729       0.00045376      -0.00016123       0.00021929
O        5.27373604      -2.65735731     -12.88921174      -0.00013727       0.00003832       0.00008179
H        3.30874259      -4.19893408     -14.31173537      -0.00052903       0.00000700      -0.00011975
H        5.51378532      -3.28331817     -12.11104211       0.00000928      -0.00007039       0.00006700
N        5.82401128      -4.28069345     -10.87034758      -0.00002937       0.00036883      -0.00010511
C        5.66880310      -5.67736857     -11.27609101       0.00002004       0.00079513       0.00032416
C        4.88325704      -3.86551418      -9.83695058       0.00045125       0.00027892      -0.00052708
H        6.77989835      -4.09599608     -10.58322035      -0.00043812      -0.00006082       0.00011580
H        4.64958176      -5.82151831     -11.63944202      -0.00092516       0.00002358      -0.00030877
H        6.35367394      -5.89923628     -12.09438641       0.00028056      -0.00015137      -0.00017057
H        5.84748548      -6.38367650     -10.45303098       0.00040407      -0.00063284       0.00031987
H        3.86690295      -4.06692065     -10.18894650       0.00018136      -0.00035238      -0.00022438
H        5.03032213      -4.39720855      -8.88667366      -0.00011642      -0.00008690       0.00027651
H        4.97355016      -2.79125994      -9.66746593       0.00014695      -0.00009069      -0.00003864
