17
Properties=species:S:1:pos:R:3:forces:R:3 -1911.76146=T energy=-22728.38866620336 free_energy=-22728.38866620336 pbc="F F F"
S        9.37902700      -1.16364581     -25.84981396      -0.00032266       0.00088331       0.00030408
O        9.23437994      -2.56345642     -26.15931264      -0.00003777      -0.00012183      -0.00006792
O        8.21155857      -0.31695398     -25.79128326       0.00002676      -0.00041223      -0.00018027
O       10.26431094      -0.96956641     -24.52476709       0.00037950      -0.00008178       0.00006214
O       10.51405871      -0.51159663     -26.77954990       0.00006690      -0.00008191       0.00037861
H        9.78662531      -1.34238094     -23.76287165      -0.00015859      -0.00009373       0.00016648
H       10.30038225      -0.67752848     -27.71469114       0.00002822      -0.00004903      -0.00062158
N       10.67271089       3.22820881     -25.18406157       0.00014069       0.00004496      -0.00043832
C       11.28232006       2.17356193     -24.39143860       0.00001878      -0.00011075       0.00039268
C        9.78386890       2.71222539     -26.21388562      -0.00023010      -0.00016356       0.00024767
H       10.16535067       3.86714700     -24.57978714      -0.00023089       0.00015715       0.00022490
H       11.94504409       1.58553312     -25.03686893       0.00014460       0.00002383      -0.00009586
H       11.90409361       2.61307711     -23.60451493      -0.00001943      -0.00011280      -0.00011536
H       10.56354532       1.47810895     -23.92853927       0.00003238      -0.00007465       0.00006430
H       10.36077302       2.07189035     -26.88900270       0.00010825      -0.00003412      -0.00016894
H        8.94287898       2.11463528     -25.82742964       0.00011551       0.00022971      -0.00008303
H        9.38061976       3.54011171     -26.80587274      -0.00006179      -0.00000283      -0.00006959
