17
Properties=species:S:1:pos:R:3:forces:R:3 -1911.97633=T energy=-22728.795962184147 free_energy=-22728.795962184147 pbc="F F F"
S       30.53838011     -24.97283972      17.43648010      -0.00010447      -0.00020504       0.00037787
O       29.67049566     -25.79692839      18.25239704       0.00026369      -0.00011575      -0.00011110
O       30.37101357     -24.93278331      16.00876430      -0.00012720      -0.00002193      -0.00018466
O       30.59458513     -23.50948792      17.97634588      -0.00020273      -0.00012121      -0.00027776
O       32.06741666     -25.39427677      17.78067981       0.00001630       0.00073215       0.00008958
H       30.61659651     -23.52772406      19.00335712      -0.00008963      -0.00018840       0.00032719
H       32.18137061     -26.33691553      17.56854058       0.00037501      -0.00030287      -0.00058770
N       30.79640885     -23.61584369      20.62239096      -0.00043819      -0.00029749      -0.00011546
C       32.02819087     -24.37601694      20.83313843      -0.00039232      -0.00006622       0.00031925
C       29.61975097     -24.25323992      21.21579061       0.00024010       0.00013244      -0.00009560
H       30.89967168     -22.66731396      20.96913093       0.00015869       0.00019271      -0.00006530
H       31.91870022     -25.36498809      20.38320296       0.00001162      -0.00003128       0.00005217
H       32.86270670     -23.86969562      20.34604483       0.00033449      -0.00007030      -0.00027273
H       32.26474188     -24.50457431      21.89887171      -0.00000953      -0.00021313       0.00028980
H       29.41491221     -25.17187378      20.66309579      -0.00000093       0.00014101      -0.00000780
H       29.76171726     -24.49907795      22.27838157      -0.00033113       0.00018554       0.00009309
H       28.75606731     -23.59218131      21.12311058       0.00029616       0.00024973       0.00016931
