17
Properties=species:S:1:pos:R:3:forces:R:3 -1911.72286=T energy=-22728.381497598977 free_energy=-22728.381497598977 pbc="F F F"
S       13.55611290     -19.01978288      20.69513379       0.00001866       0.00013583       0.00033811
O       13.85828575     -19.93417464      19.62838058      -0.00003839      -0.00024104      -0.00025165
O       12.97768917     -17.71662357      20.49309987      -0.00003397       0.00002217      -0.00006801
O       12.64613094     -19.84271497      21.74035508      -0.00004025       0.00042927       0.00032231
O       14.88898393     -18.78753775      21.56749130      -0.00014398       0.00031631       0.00008420
H       12.38880552     -19.24293096      22.46059945       0.00008143      -0.00041433      -0.00039463
H       15.48544894     -19.53863413      21.40890117       0.00013133      -0.00025218      -0.00005615
N       10.49404609     -18.13910620      18.80220271      -0.00006942       0.00001301      -0.00006648
C       11.10524637     -18.95425933      17.76665664       0.00003320       0.00010586      -0.00004053
C        9.80502367     -18.91196840      19.82035121       0.00000972      -0.00006965      -0.00001898
H       11.20993042     -17.57052542      19.24215079       0.00009150       0.00005350       0.00013354
H       10.32767497     -19.50944421      17.22755872      -0.00007121      -0.00008340      -0.00005386
H       11.59686147     -18.30223572      17.03562939       0.00005795      -0.00000910      -0.00004168
H       11.84723894     -19.67617078      18.14514934       0.00001147      -0.00003375       0.00002892
H        8.97927408     -19.46998513      19.36194402      -0.00006616      -0.00000834       0.00000231
H       10.44927047     -19.63083216      20.35613887       0.00002708       0.00004616       0.00004657
H        9.36179018     -18.23094642      20.55612954       0.00000088      -0.00001040       0.00003607
