17
Properties=species:S:1:pos:R:3:forces:R:3 -1912.05749=T energy=-22728.779807202947 free_energy=-22728.779807202947 pbc="F F F"
S       26.75276533     -21.84078413       9.96079837      -0.00011240       0.00089100       0.00011935
O       26.42525823     -21.04918936       8.80147054       0.00022724      -0.00020099       0.00015163
O       26.71380274     -21.30331586      11.29953503      -0.00028911      -0.00023210      -0.00026381
O       25.91621076     -23.17066595       9.88962561      -0.00030032      -0.00008368      -0.00002658
O       28.26634936     -22.39560057       9.75019443       0.00065497      -0.00002371      -0.00061033
H       26.02766260     -23.66479051      10.78213729       0.00007635      -0.00017174       0.00023411
H       28.50203590     -22.26367915       8.81662774      -0.00023049      -0.00013034       0.00036967
N       26.43101163     -24.17037673      12.29093093      -0.00033677      -0.00046781       0.00029410
C       27.75083831     -24.78846946      12.20450879      -0.00014472      -0.00005114      -0.00069284
C       25.42908238     -25.01389720      12.92399670      -0.00039051      -0.00020169       0.00039426
H       26.48900556     -23.25706180      12.73477578       0.00046030      -0.00004064      -0.00005590
H       27.65596571     -25.75475401      11.69861526      -0.00044187       0.00026979       0.00060027
H       28.41411740     -24.15861120      11.60988969       0.00053805       0.00060540      -0.00027362
H       28.20261842     -24.95743591      13.19217449      -0.00036405      -0.00007717       0.00024855
H       25.30824038     -25.92335739      12.32765180      -0.00025898      -0.00011405      -0.00062711
H       25.69891758     -25.30294032      13.95088348       0.00010857       0.00029685       0.00036648
H       24.46977475     -24.49293500      12.94416956       0.00080381      -0.00026780      -0.00022791
