17
Properties=species:S:1:pos:R:3:forces:R:3 -1912.03133=T energy=-22728.779781657628 free_energy=-22728.779781657628 pbc="F F F"
S       -0.42563786     -19.57901641      21.72936955      -0.00023477      -0.00028774       0.00009266
O        0.42222935     -20.70572979      22.02860682      -0.00018144       0.00032425       0.00035572
O       -0.03830812     -18.54585856      20.79929305      -0.00029072      -0.00029099      -0.00027043
O       -1.85018153     -20.13239024      21.35763662       0.00009590       0.00009483       0.00028025
O       -0.72694458     -18.81900521      23.13455909       0.00020748       0.00041892       0.00017822
H       -2.41044148     -19.35189319      20.99709816      -0.00012818      -0.00040593       0.00003912
H       -0.47499260     -19.42015409      23.85544687       0.00022748       0.00081246      -0.00037176
N       -3.00155662     -17.90711999      20.48899100       0.00045461       0.00021641      -0.00002610
C       -3.39906973     -17.15393116      21.67478168       0.00012249      -0.00068781       0.00021124
C       -4.04887272     -18.01630590      19.48528265      -0.00008909       0.00039463       0.00005752
H       -2.14119709     -17.53288200      20.09628257      -0.00029786      -0.00068069       0.00001404
H       -4.31071085     -17.59882391      22.08654009       0.00008432       0.00023573      -0.00046985
H       -2.61731162     -17.22130792      22.43283177       0.00012204      -0.00055697       0.00010779
H       -3.59870019     -16.09566407      21.45481603       0.00002880      -0.00045373       0.00027169
H       -4.90030593     -18.54635542      19.92287809      -0.00009789       0.00009964      -0.00050868
H       -4.39643320     -17.03821288      19.12012455      -0.00016141       0.00026451       0.00045707
H       -3.68605467     -18.60122655      18.63776395       0.00013813       0.00050226      -0.00041870
