17
Properties=species:S:1:pos:R:3:forces:R:3 -1912.01157=T energy=-22728.83689916561 free_energy=-22728.83689916561 pbc="F F F"
S       25.35031134     -22.23075470       1.84187886      -0.00012509       0.00001728       0.00007103
O       25.85349555     -21.05390626       1.16896081      -0.00001699      -0.00032115      -0.00004148
O       25.19065122     -22.18890447       3.27854349       0.00027347       0.00002170       0.00004852
O       23.96654912     -22.68419945       1.16683893      -0.00002268       0.00013500      -0.00015163
O       26.14316077     -23.50258587       1.40245742       0.00017560       0.00026023       0.00007540
H       23.29524186     -21.99641746       1.32930638       0.00010289      -0.00004747       0.00002561
H       27.11234419     -23.38331019       1.70124109      -0.00012033      -0.00006636      -0.00003648
N       28.63525661     -23.14871647       2.35567788      -0.00010517       0.00027127      -0.00022951
C       28.60420531     -21.88891166       3.10050113      -0.00013563       0.00007319      -0.00009519
C       29.65901224     -23.17186200       1.31645007      -0.00000016      -0.00020908      -0.00018473
H       28.76062453     -23.93227827       2.98939585      -0.00003080      -0.00035763       0.00033256
H       28.39089203     -21.07634757       2.40092426      -0.00026833       0.00009453      -0.00011138
H       27.79770137     -21.91753650       3.83416890      -0.00002211      -0.00007457       0.00007215
H       29.55318720     -21.67132958       3.61002474       0.00027335      -0.00000731       0.00022704
H       29.46420155     -22.35804072       0.61148657      -0.00004645       0.00012026      -0.00015956
H       30.67582165     -23.04231752       1.71574425      -0.00000560      -0.00004205       0.00010133
H       29.60935839     -24.11355979       0.76671069       0.00007392       0.00013182       0.00005627
