17
Properties=species:S:1:pos:R:3:forces:R:3 -1911.77544=T energy=-22728.337389247292 free_energy=-22728.337389247292 pbc="F F F"
S       28.11223780     -24.28068731       8.98994670       0.00064986       0.00016620      -0.00001640
O       28.38352618     -24.95201701       7.74242320       0.00013754       0.00000679       0.00000358
O       28.04977986     -22.83953974       9.02461718       0.00000285      -0.00018990       0.00003362
O       26.81020618     -24.91457388       9.67816727      -0.00050548      -0.00005129       0.00014342
O       29.07420346     -24.83293394      10.14395061      -0.00049579       0.00019450      -0.00038414
H       26.06978902     -24.91008069       9.04581496       0.00025485      -0.00005329       0.00036865
H       30.00692788     -24.72012449       9.88871181      -0.00013564       0.00005354       0.00010312
N       28.99776904     -23.23144426      13.03730736       0.00000430       0.00015317      -0.00028422
C       27.65596478     -23.14313544      12.48588322       0.00004208      -0.00023163       0.00000894
C       29.59403041     -21.92730897      13.24368118       0.00048169      -0.00021428       0.00023496
H       28.98630933     -23.75308621      13.90705814      -0.00028504      -0.00005984      -0.00025600
H       27.70309253     -22.56627889      11.55753397       0.00023367      -0.00030580       0.00005250
H       27.28140941     -24.13891436      12.23658794      -0.00007693       0.00011322      -0.00021394
H       26.92411328     -22.64701922      13.14671213      -0.00039522       0.00004882       0.00031798
H       29.68615179     -21.42937113      12.27129195       0.00039168       0.00000636      -0.00075651
H       29.01826752     -21.25870178      13.90980112      -0.00071087       0.00010908       0.00059581
H       30.60354737     -22.03716889      13.65277228       0.00040624       0.00025430       0.00004890
