17
Properties=species:S:1:pos:R:3:forces:R:3 -1912.06739=T energy=-22728.760257329985 free_energy=-22728.760257329985 pbc="F F F"
S        7.40799786      -2.17159809     -24.36108245      -0.00002176      -0.00004056      -0.00006693
O        7.01452375      -2.21247597     -25.74770879       0.00003523       0.00016189       0.00009561
O        6.54110308      -1.65406185     -23.33315717       0.00010359       0.00015613      -0.00016713
O        7.77615805      -3.70518371     -23.97940248      -0.00003731       0.00005788       0.00004044
O        8.80272104      -1.46282266     -24.20912478       0.00004003      -0.00018993       0.00021183
H        7.65833179      -3.81218567     -23.02101404      -0.00053118      -0.00008558      -0.00008725
H        9.45489235      -1.90250363     -24.86931630      -0.00001503      -0.00030524       0.00003250
N       10.36802168      -2.52015577     -26.06936189       0.00006616       0.00060172      -0.00031930
C       10.09799844      -1.61132848     -27.18203616      -0.00004119       0.00013256      -0.00019282
C        9.97732235      -3.90187895     -26.35233992       0.00027365       0.00034299       0.00019833
H       11.34400555      -2.47292915     -25.79415273       0.00037061      -0.00010069       0.00013268
H        9.02299944      -1.61474126     -27.37695106      -0.00012113       0.00036343       0.00028949
H       10.39636261      -0.59708861     -26.91153095      -0.00003006      -0.00065784      -0.00027537
H       10.62245498      -1.90406825     -28.10247227      -0.00045639      -0.00012803       0.00014213
H        8.90262514      -3.92896627     -26.53763015      -0.00020362      -0.00027586       0.00030875
H       10.49097288      -4.31475438     -27.23232496       0.00044255       0.00003322      -0.00061651
H       10.19350160      -4.53250398     -25.48904900       0.00012563      -0.00006606       0.00027314
