17
Properties=species:S:1:pos:R:3:forces:R:3 -1911.70775=T energy=-22728.28720344127 free_energy=-22728.28720344127 pbc="F F F"
S        5.30055895      -4.05999883     -13.58701654       0.00016277       0.00004112      -0.00006704
O        6.61955133      -4.52168617     -13.92441924       0.00017834       0.00021636       0.00001317
O        4.09109303      -4.69126544     -14.03890781       0.00021434      -0.00026858      -0.00007571
O        5.25622012      -3.95313790     -11.97563036      -0.00022894      -0.00011295       0.00003159
O        5.18136641      -2.50487077     -13.98795655      -0.00032072      -0.00012122      -0.00001532
H        4.32692572      -3.88351300     -11.69787158       0.00038716      -0.00011869      -0.00004252
H        6.07992276      -2.13422179     -14.02333548      -0.00014867       0.00002125       0.00016428
N        5.78938628      -6.89207897     -11.19589478       0.00024241      -0.00014212       0.00001962
C        6.35392846      -7.20860747      -9.90152668       0.00010180      -0.00001919       0.00007761
C        4.34012633      -6.94043243     -11.22215300      -0.00003861       0.00017726       0.00025488
H        6.10756133      -5.97886460     -11.49960146       0.00005026       0.00034507      -0.00011972
H        6.12460131      -8.24977345      -9.64181576      -0.00019560      -0.00018828       0.00003759
H        7.44405085      -7.11451139      -9.94885045       0.00002567      -0.00020476      -0.00030756
H        5.98651995      -6.56723330      -9.07906036      -0.00016885       0.00024178       0.00001736
H        4.00645668      -7.97768169     -11.09442863      -0.00020002       0.00017261      -0.00034199
H        3.85371198      -6.33871263     -10.43287164       0.00001102       0.00020987       0.00019754
H        3.97832386      -6.59484337     -12.19559057      -0.00007251      -0.00024960       0.00015613
