17
Properties=species:S:1:pos:R:3:forces:R:3 -1911.75686=T energy=-22728.439649793738 free_energy=-22728.439649793738 pbc="F F F"
S        4.85980958      -7.23374499     -19.19479278      -0.00069558      -0.00003198       0.00025053
O        5.18619815      -8.47287619     -19.85483184       0.00021619      -0.00027394      -0.00019085
O        3.49722896      -6.76716173     -19.16688984       0.00043154       0.00004005       0.00008351
O        5.50354501      -7.20353053     -17.72509695       0.00012702       0.00041959      -0.00036222
O        5.83746795      -6.06182456     -19.70303269       0.00006534       0.00009423       0.00000465
H        5.19063373      -7.97091768     -17.21398509      -0.00015990      -0.00029382       0.00017813
H        5.72325372      -5.92441078     -20.66061630       0.00000003       0.00001138       0.00004271
N        5.39158624      -3.50188751     -17.91288386       0.00008679       0.00004330       0.00000085
C        4.08380703      -3.06256349     -17.46526087       0.00001121      -0.00001985       0.00005561
C        6.21076857      -4.05861586     -16.85155880      -0.00001127      -0.00000647       0.00008851
H        5.28668819      -4.19302270     -18.64719012       0.00001306       0.00000422      -0.00003803
H        4.19013090      -2.21396234     -16.77825396      -0.00003352       0.00007607      -0.00001732
H        3.50376391      -2.71814132     -18.32770782       0.00005697       0.00001402       0.00001711
H        3.50281339      -3.84821714     -16.94982297      -0.00004578      -0.00007001       0.00001928
H        6.50786289      -3.26517891     -16.15395123      -0.00011530      -0.00004256      -0.00007440
H        5.71076711      -4.85220312     -16.27352617       0.00010800       0.00007778      -0.00005877
H        7.12954649      -4.47153364     -17.28120918      -0.00005487      -0.00004184       0.00000067
