17
Properties=species:S:1:pos:R:3:forces:R:3 -1911.74617=T energy=-22728.392384263672 free_energy=-22728.392384263672 pbc="F F F"
S        5.24515752      -3.85512320     -16.52370190      -0.00038592       0.00050246      -0.00011854
O        5.88011780      -5.10570516     -16.86381264      -0.00006664      -0.00005007      -0.00013046
O        4.76308168      -2.98845354     -17.56928470       0.00032496      -0.00046873       0.00022298
O        4.09969836      -4.09981513     -15.42603378       0.00010066      -0.00003360       0.00002301
O        6.14483173      -3.01760773     -15.48999793       0.00011027       0.00006762      -0.00002494
H        3.35172387      -4.56527661     -15.84002265      -0.00007780      -0.00004096      -0.00005957
H        6.85059991      -2.55609270     -15.97658326      -0.00003227       0.00001056       0.00009282
N        6.87921049      -5.86736343     -12.71895859       0.00009851       0.00011064       0.00014342
C        5.60008383      -5.17965891     -12.67451760       0.00012231      -0.00008208      -0.00001762
C        7.60519646      -5.60410928     -13.95112415      -0.00007817      -0.00001869       0.00031346
H        7.44454063      -5.59931852     -11.91921917      -0.00019288      -0.00003404      -0.00012633
H        4.99302556      -5.51224385     -13.52187243      -0.00017918       0.00002099      -0.00024066
H        5.06526553      -5.44330553     -11.75635113       0.00002500      -0.00019865       0.00030911
H        5.67512356      -4.08006438     -12.72804494       0.00005516       0.00018406      -0.00014544
H        7.02630922      -5.99751579     -14.79293594      -0.00022891       0.00002754      -0.00006993
H        7.79074455      -4.53533906     -14.14814566       0.00004549       0.00018427      -0.00008204
H        8.56598151      -6.12835470     -13.93662252       0.00035910      -0.00018126      -0.00008949
