17
Properties=species:S:1:pos:R:3:forces:R:3 -1912.04563=T energy=-22728.83689896287 free_energy=-22728.83689896287 pbc="F F F"
S       28.01228313     -25.81811727       2.43814203      -0.00011616      -0.00009369       0.00003635
O       28.93143301     -26.93442924       2.44330452      -0.00019884       0.00062847       0.00011986
O       27.41986442     -25.41781242       1.18114350       0.00031269      -0.00021112       0.00018716
O       26.85017813     -26.07528958       3.51493509       0.00037462       0.00025393       0.00025803
O       28.62544576     -24.59117842       3.18509308      -0.00030303      -0.00062561       0.00006956
H       26.31830931     -26.84057655       3.22940270      -0.00011054      -0.00009484      -0.00037735
H       29.45370576     -24.29403427       2.66694234       0.00007576       0.00007990      -0.00027565
N       30.70630202     -23.80620497       1.66914535      -0.00004989       0.00023912      -0.00017458
C       30.70075100     -24.68214483       0.49631525       0.00008277      -0.00006354      -0.00021702
C       31.97795192     -23.81847649       2.38423444       0.00019346      -0.00013121       0.00014371
H       30.46191526     -22.85688953       1.40383873       0.00009028      -0.00017969      -0.00000279
H       30.89008535     -25.70696189       0.82660855      -0.00019449       0.00013290      -0.00016551
H       29.71624265     -24.65944180       0.02751564       0.00002976      -0.00003448       0.00000824
H       31.46402017     -24.40712767      -0.24487317      -0.00021219      -0.00013913       0.00036097
H       32.18645894     -24.84034098       2.71525375      -0.00012334       0.00013321      -0.00008996
H       32.82069785     -23.48179259       1.76249207      -0.00020511       0.00019512       0.00036582
H       31.91248141     -23.18369873       3.26981306       0.00035447      -0.00008891      -0.00024687
