17
Properties=species:S:1:pos:R:3:forces:R:3 -1911.73388=T energy=-22728.4804430321 free_energy=-22728.4804430321 pbc="F F F"
S        6.50846929      -3.09291612     -18.96326881       0.00022234      -0.00040103       0.00052743
O        7.85234029      -3.61252598     -19.03845823       0.00048518      -0.00032505       0.00008744
O        5.39979904      -3.90997244     -19.38623613       0.00016475       0.00008276       0.00020422
O        6.22206484      -2.48538366     -17.50440417       0.00051574       0.00012428       0.00047275
O        6.43090814      -1.64502104     -19.64669408       0.00080755       0.00022718      -0.00016826
H        6.09571438      -3.20556185     -16.86120760       0.00036430       0.00014762       0.00001037
H        6.46218546      -1.73818145     -20.61516511      -0.00038762      -0.00087895       0.00026239
N        8.77252749      -0.73074176     -16.96941999      -0.00061198      -0.00003396      -0.00030433
C        9.75146156      -1.80400188     -16.90092053      -0.00053406       0.00010180      -0.00030604
C        8.83179532       0.03541838     -18.20253641      -0.00002451       0.00031489       0.00040364
H        7.84272464      -1.12131428     -16.86487665      -0.00046642       0.00023136      -0.00079261
H       10.76415508      -1.38222512     -16.91497882      -0.00026036      -0.00030809      -0.00041186
H        9.64065730      -2.33383311     -15.94827179      -0.00074598      -0.00052501      -0.00029179
H        9.66231673      -2.53307396     -17.72165672      -0.00059060      -0.00012104      -0.00050133
H        9.77416162       0.59574409     -18.24230526       0.00072480       0.00000838       0.00027214
H        8.75697624      -0.57242834     -19.11822400      -0.00004122       0.00089183       0.00010519
H        8.01990421       0.77053993     -18.21079267       0.00037783       0.00046298       0.00043041
