17
Properties=species:S:1:pos:R:3:forces:R:3 -1911.72982=T energy=-22728.3278123884 free_energy=-22728.3278123884 pbc="F F F"
S        5.91184791       5.79740224     -14.98732880       0.00038131       0.00025968      -0.00044671
O        6.94128344       6.15113663     -15.92257045      -0.00029266      -0.00008896       0.00037289
O        4.51286314       5.96546756     -15.30344948      -0.00016093      -0.00005308       0.00004601
O        6.20416263       4.30648266     -14.48451980       0.00005773      -0.00016780      -0.00000435
O        6.18809532       6.51605158     -13.56777186       0.00016465      -0.00048256       0.00007275
H        5.62219247       4.11800791     -13.72906708      -0.00006245       0.00000691       0.00002669
H        5.90644505       7.44457426     -13.63842283      -0.00011222       0.00053901      -0.00003301
N        5.38207402       2.75350187     -18.13250097      -0.00002153       0.00005473       0.00011818
C        4.40756201       3.03471946     -17.09096982       0.00004959       0.00010037      -0.00011975
C        6.67445618       3.35499173     -17.84951337      -0.00002152      -0.00001185       0.00000191
H        5.48403705       1.75027806     -18.25231327       0.00009227       0.00005987      -0.00000293
H        4.25164220       4.11737411     -17.03924213       0.00000085      -0.00006843       0.00000837
H        3.44777731       2.57249982     -17.34202783      -0.00009158      -0.00000727      -0.00005383
H        4.70656820       2.69702511     -16.08398843       0.00006546       0.00000492       0.00011460
H        6.54698982       4.43927299     -17.77083770      -0.00006862      -0.00007076      -0.00006285
H        7.13972164       3.01139857     -16.90979072      -0.00000732      -0.00004712       0.00003085
H        7.36888777       3.15934852     -18.67248525       0.00002681      -0.00002736      -0.00006855
