17
Properties=species:S:1:pos:R:3:forces:R:3 -1912.03384=T energy=-22728.752753696725 free_energy=-22728.752753696725 pbc="F F F"
S        6.15360267     -14.24144818      -7.64680268      -0.00007545      -0.00017008      -0.00006631
O        5.80075772     -15.57436511      -8.06384488       0.00010127       0.00032997       0.00009927
O        6.27327486     -13.15155347      -8.57964840      -0.00012523      -0.00007343       0.00007445
O        5.04180923     -13.86303087      -6.52559247       0.00019383       0.00029437      -0.00006801
O        7.46175030     -14.25652938      -6.77213856       0.00002868       0.00016112      -0.00014601
H        5.26907659     -12.99927659      -6.14275111      -0.00004683      -0.00031177      -0.00012189
H        7.31428384     -14.92267576      -6.00428967       0.00002132      -0.00016385       0.00022006
N        7.04800509     -15.87346263      -4.71670008      -0.00026129      -0.00008930      -0.00021869
C        8.11134092     -16.87177663      -4.74521266      -0.00013942      -0.00002331      -0.00012131
C        5.70753546     -16.45792221      -4.74549154      -0.00015134       0.00002902       0.00007822
H        7.15431743     -15.26520234      -3.91099687      -0.00007789       0.00015439       0.00009744
H        7.95973797     -17.52647627      -5.60916448      -0.00000735      -0.00021333      -0.00028126
H        9.07772998     -16.37792519      -4.86149831      -0.00000893       0.00000614       0.00017919
H        8.12943412     -17.49744425      -3.84198455       0.00014820       0.00007360       0.00007905
H        5.57043878     -16.97036158      -5.70052565       0.00007112       0.00030676       0.00041615
H        5.54177123     -17.18350455      -3.93583491       0.00001161      -0.00002177      -0.00001907
H        4.96269362     -15.66611075      -4.67363318       0.00031761      -0.00028822      -0.00020120
