17
Properties=species:S:1:pos:R:3:forces:R:3 -1911.74575=T energy=-22728.455784906357 free_energy=-22728.455784906357 pbc="F F F"
S       28.26179503     -25.33309409       1.38810231       0.00022800      -0.00048715       0.00081489
O       28.20116538     -26.70233393       0.94394388      -0.00000460       0.00012088       0.00001669
O       27.82904626     -24.27178764       0.51121814       0.00004175       0.00049424      -0.00049087
O       27.58430942     -25.19129658       2.83444312       0.00022240      -0.00005145      -0.00002632
O       29.72159551     -25.00089301       1.97316126      -0.00020856       0.00006257       0.00001264
H       26.66649552     -25.51421107       2.80236706      -0.00011160      -0.00001894      -0.00008447
H       30.38240665     -25.04919562       1.25917803      -0.00006393      -0.00003436      -0.00021221
N       29.57003293     -22.14915143       3.30472557       0.00055581      -0.00024975       0.00019552
C       28.16768320     -21.93869682       2.98096600       0.00006783      -0.00001320      -0.00003561
C       29.83560186     -22.14555345       4.72938177      -0.00013748      -0.00008551      -0.00010648
H       29.87660076     -23.02946263       2.90587631      -0.00019865       0.00029418       0.00007141
H       27.87538792     -20.91608596       3.24828435       0.00001170       0.00001775       0.00003487
H       28.01954876     -22.05112209       1.90255038      -0.00017466      -0.00005661      -0.00022420
H       27.48539863     -22.63398453       3.49438496      -0.00013851      -0.00008239       0.00009497
H       29.61103040     -21.15560517       5.14512940      -0.00002768       0.00012315       0.00009383
H       29.25094563     -22.89255430       5.29638273      -0.00023292      -0.00001493       0.00010315
H       30.89925935     -22.33934491       4.90331681       0.00017080      -0.00001826      -0.00025787
