17
Properties=species:S:1:pos:R:3:forces:R:3 -1912.05237=T energy=-22728.828057444225 free_energy=-22728.828057444225 pbc="F F F"
S       28.28990747     -24.35054831      26.55343511       0.00062223      -0.00032685       0.00013043
O       29.05955702     -25.52976418      26.84564902      -0.00038493       0.00059652      -0.00013810
O       28.79673853     -23.35788769      25.62796692       0.00015697       0.00001264       0.00021136
O       26.83478800     -24.77585162      26.18483097      -0.00046039      -0.00035828       0.00023468
O       27.94338682     -23.57402100      27.93610867       0.00027725       0.00018765      -0.00027335
H       26.25794439     -23.92582886      26.14997867       0.00017864       0.00042222      -0.00020941
H       28.73336824     -23.08179559      28.21913620      -0.00028688      -0.00021555      -0.00012373
N       25.56812207     -22.45720453      26.31194960      -0.00068012      -0.00044492      -0.00043445
C       24.12601587     -22.54773404      26.48432232      -0.00009239       0.00053203       0.00007982
C       25.97428637     -21.60771733      25.19503075      -0.00055677       0.00051776       0.00017411
H       26.02284576     -22.16218518      27.17147535       0.00000811       0.00020690       0.00047925
H       23.69097462     -22.98253278      25.57924231       0.00046487      -0.00057903      -0.00034723
H       23.89489389     -23.20923579      27.32173779      -0.00051916       0.00010028       0.00013399
H       23.65383470     -21.57020681      26.66282436       0.00053509      -0.00025080       0.00071219
H       25.47550459     -21.95958571      24.28623027       0.00037532       0.00035373      -0.00008587
H       25.70940060     -20.55155507      25.34784274       0.00017617      -0.00055191      -0.00032382
H       27.05170786     -21.69644296      25.04831246       0.00018610      -0.00020267      -0.00021973
