17
Properties=species:S:1:pos:R:3:forces:R:3 -1911.71087=T energy=-22728.327813199365 free_energy=-22728.327813199365 pbc="F F F"
S        9.38786525      -0.61296989     -20.84129912       0.00017222      -0.00046501       0.00020479
O        9.86544324       0.58539975     -21.47004948       0.00017583       0.00059986      -0.00034124
O        7.99309969      -0.98469385     -20.88342960      -0.00042713      -0.00004554       0.00007129
O       10.31186306      -1.82226750     -21.33620583       0.00016662       0.00004455      -0.00020177
O        9.86384201      -0.65162174     -19.29862149       0.00038196      -0.00043561      -0.00039518
H       10.11332586      -2.60262985     -20.79165726      -0.00003890      -0.00015028       0.00011411
H        9.28170911      -0.06338071     -18.78719432      -0.00044274       0.00046789       0.00057727
N        8.89152958      -1.55861919     -25.11884759       0.00016543      -0.00002849      -0.00009943
C        8.28590024      -2.31612826     -24.03582505       0.00013411       0.00028378      -0.00005543
C        9.92334907      -0.65264090     -24.64274766      -0.00024813       0.00001083      -0.00033782
H        9.27745543      -2.19132483     -25.81308297      -0.00010996       0.00010610       0.00024806
H        7.80310433      -1.61660238     -23.34539976      -0.00007821       0.00004865       0.00012353
H        7.51118274      -2.98031058     -24.43146544      -0.00007831      -0.00025472       0.00000277
H        8.99833746      -2.91958628     -23.44784163      -0.00006817      -0.00013477      -0.00007953
H        9.47411230       0.04806088     -23.93190188      -0.00004960      -0.00007892       0.00004894
H       10.76188484      -1.15008450     -24.12602131       0.00018579      -0.00008199       0.00019624
H       10.32630871      -0.06967889     -25.47675433       0.00015890       0.00011353      -0.00007692
