17
Properties=species:S:1:pos:R:3:forces:R:3 -1911.71939=T energy=-22728.201134166593 free_energy=-22728.201134166593 pbc="F F F"
S        4.13866091     -20.10235999      23.12943090       0.00018510      -0.00005660       0.00004593
O        5.43865433     -20.68667131      23.30777964      -0.00002289       0.00004590       0.00001335
O        3.68117144     -19.53079627      21.89162348      -0.00001001       0.00007641       0.00004363
O        3.06521059     -21.19334640      23.62041849      -0.00016263       0.00028023      -0.00001487
O        3.94608356     -18.96395181      24.25960560      -0.00048792      -0.00002137      -0.00060760
H        2.21488939     -20.99713502      23.18479705       0.00006990      -0.00015942       0.00015125
H        4.62133536     -19.10856537      24.94353918       0.00042724      -0.00011855       0.00038646
N       -0.28575404     -18.52125231      23.25787806      -0.00024928      -0.00005462       0.00000049
C        0.38748159     -19.01151697      24.44545062       0.00000638      -0.00006032       0.00004983
C        0.19339698     -19.14141361      22.03735424      -0.00009638      -0.00001965       0.00014606
H       -1.28731091     -18.66140310      23.34454554       0.00026745       0.00009665       0.00009775
H        1.45162101     -18.76089403      24.38169039       0.00003950      -0.00005269      -0.00004565
H       -0.01576815     -18.51176801      25.33191891      -0.00005868       0.00011440       0.00006998
H        0.30432577     -20.10239693      24.60303865      -0.00004334      -0.00005168      -0.00012869
H        1.26980676     -18.96189511      21.94061031      -0.00000950      -0.00000666       0.00000447
H        0.02112948     -20.23196161      21.98479140       0.00006714       0.00004157      -0.00016353
H       -0.29890574     -18.68420668      21.17263058       0.00007797      -0.00005347      -0.00004897
