17
Properties=species:S:1:pos:R:3:forces:R:3 -1911.98619=T energy=-22728.836861861335 free_energy=-22728.836861861335 pbc="F F F"
S        5.23963242      -4.79796036     -15.21199628      -0.00068785       0.00044643       0.00020855
O        6.10441172      -5.91384351     -15.52452259      -0.00011945      -0.00002527      -0.00018084
O        3.90877850      -5.07329512     -14.71762179       0.00080800      -0.00020581      -0.00018716
O        5.97473598      -3.76566643     -14.29867121       0.00029784      -0.00019765      -0.00002275
O        5.14256086      -3.82124024     -16.48202797       0.00019974      -0.00025188       0.00031060
H        6.19382430      -4.23325861     -13.41775057      -0.00029758      -0.00001482       0.00002111
H        4.69271134      -4.29045999     -17.20836193      -0.00013858       0.00000253      -0.00008903
N        6.36721642      -5.04413709     -11.96199300      -0.00014774      -0.00072716       0.00061464
C        7.77022817      -5.12432339     -11.56992431      -0.00043118      -0.00032352      -0.00004910
C        5.73473963      -6.35738562     -12.09782023      -0.00028946       0.00003108       0.00025522
H        5.85107970      -4.46971728     -11.30242556       0.00032188      -0.00046109      -0.00069015
H        8.31450932      -5.69646127     -12.32717857       0.00028267       0.00014134      -0.00025474
H        8.20226620      -4.12272719     -11.52918386       0.00032775       0.00019521       0.00018954
H        7.91546850      -5.61789377     -10.59759544      -0.00014917       0.00032748      -0.00001486
H        6.28425309      -6.93388512     -12.84713118      -0.00022103       0.00076777       0.00029160
H        5.72716953      -6.92668931     -11.15788546       0.00025231       0.00019618      -0.00032225
H        4.71164164      -6.23456322     -12.45525718      -0.00000802       0.00009899      -0.00008035
