17
Properties=species:S:1:pos:R:3:forces:R:3 -1912.03579=T energy=-22728.860250425285 free_energy=-22728.860250425285 pbc="F F F"
S       11.18141363     -17.32009642      19.68400768      -0.00059659      -0.00041850      -0.00033708
O       11.29673061     -17.87089178      21.01598639       0.00012317      -0.00033122       0.00064397
O       11.68461748     -18.09685461      18.57265698       0.00007871      -0.00000043      -0.00034094
O        9.72381536     -16.82606544      19.41232486      -0.00037110      -0.00005466       0.00005075
O       11.84159078     -15.85681402      19.64644104      -0.00040624       0.00023538      -0.00023690
H        9.10688295     -17.62934567      19.53445160       0.00058542       0.00038419       0.00007484
H       12.79696786     -15.93814618      19.82136083       0.00076006       0.00020111       0.00010410
N        8.44886992     -19.13954113      19.90887997      -0.00000184      -0.00094989      -0.00018872
C        8.83655794     -20.07476724      18.85441434       0.00001946      -0.00049567      -0.00019515
C        7.01658421     -19.11297679      20.16469816      -0.00028026      -0.00026360      -0.00055340
H        8.96840649     -19.33085259      20.76253048       0.00027420      -0.00000588      -0.00049645
H        8.26405800     -19.84372392      17.95053517       0.00082940       0.00006379       0.00047616
H        9.89601437     -19.94583662      18.62562927      -0.00043172       0.00088504      -0.00005902
H        8.64787626     -21.12337698      19.12512887      -0.00032799       0.00041269       0.00049641
H        6.50398734     -18.78975173      19.25355072       0.00014283       0.00026771      -0.00051821
H        6.61197620     -20.09217190      20.46264120      -0.00013531       0.00037317       0.00067024
H        6.79797901     -18.38550958      20.94896410      -0.00026209      -0.00030339       0.00040918
