17
Properties=species:S:1:pos:R:3:forces:R:3 -1912.04237=T energy=-22728.760265845092 free_energy=-22728.760265845092 pbc="F F F"
S        9.48243450     -20.92849432       2.22442499       0.00000060      -0.00012256      -0.00003730
O       10.51052207     -21.93941313       2.20615754      -0.00023031       0.00022221       0.00000378
O        9.22628898     -20.07514712       1.09208055       0.00002515      -0.00008559       0.00014770
O        8.11129636     -21.72398032       2.57109687      -0.00037777       0.00027975      -0.00041822
O        9.64361059     -20.00752968       3.48793448       0.00016750      -0.00019025       0.00012072
H        7.36830768     -21.21116016       2.21215059       0.00047004      -0.00029186       0.00026853
H        9.72267246     -20.61313802       4.31349748      -0.00011025       0.00012469      -0.00016449
N       10.02957189     -21.64024427       5.54075098       0.00013699       0.00018662      -0.00003466
C       11.48649523     -21.75652733       5.51014453       0.00009179       0.00014727       0.00000843
C        9.34953201     -22.91757400       5.32204525       0.00010727      -0.00002873      -0.00000928
H        9.72025943     -21.21361967       6.40841633       0.00006660      -0.00012428      -0.00010253
H       11.78298696     -22.11762037       4.52260181      -0.00010042       0.00002399       0.00009755
H       11.93885684     -20.77628554       5.66934148      -0.00006344      -0.00019450       0.00002915
H       11.86978147     -22.45369904       6.26843777       0.00001017       0.00009862      -0.00001806
H        9.62026000     -23.29196863       4.33382785      -0.00001643       0.00010544      -0.00006225
H        9.62606876     -23.67668817       6.06768713      -0.00000831      -0.00019247       0.00016212
H        8.26893570     -22.77194081       5.35058434      -0.00016925       0.00004157       0.00000906
