17
Properties=species:S:1:pos:R:3:forces:R:3 -1912.07151=T energy=-22728.792336370814 free_energy=-22728.792336370814 pbc="F F F"
S       27.18887424     -24.60258911       0.89280671       0.00044035      -0.00025064      -0.00010600
O       28.13629298     -25.05281482      -0.09514726      -0.00013649       0.00004280       0.00002825
O       26.07491419     -23.75663773       0.54926799      -0.00020123       0.00012857      -0.00002933
O       26.62971023     -25.96668192       1.57199707       0.00048035      -0.00020355      -0.00047198
O       27.92528124     -23.94230614       2.11582768      -0.00012947       0.00021978       0.00010346
H       25.98907484     -25.72274269       2.26168261      -0.00044670       0.00022610       0.00049007
H       28.56022631     -24.64955435       2.51069144      -0.00001147      -0.00007230      -0.00002524
N       29.35592034     -25.98579689       2.98841006       0.00009839      -0.00001553      -0.00001135
C       29.76727952     -25.89931460       4.38162901       0.00003478       0.00000840       0.00015461
C       30.46014134     -26.23314096       2.06468327       0.00018536      -0.00006103       0.00010638
H       28.62421283     -26.67961728       2.86311729      -0.00005781      -0.00009491       0.00007132
H       30.46636265     -25.06438754       4.49086539      -0.00009466      -0.00012249      -0.00007136
H       28.89918505     -25.69787457       5.01284882       0.00019559      -0.00008778      -0.00011242
H       30.26108920     -26.81510720       4.73909373      -0.00015968       0.00020130      -0.00011951
H       31.22280847     -25.46138940       2.21143751      -0.00011767      -0.00018735      -0.00000727
H       30.92900606     -27.21549774       2.21980998       0.00000721       0.00016963       0.00010217
H       30.09739872     -26.16258485       1.03817950      -0.00008675       0.00009894      -0.00010166
