17
Properties=species:S:1:pos:R:3:forces:R:3 -1911.78868=T energy=-22728.31003832057 free_energy=-22728.31003832057 pbc="F F F"
S       26.54994527     -23.20133729       1.67399405       0.00022777       0.00000785       0.00012420
O       27.96250295     -23.37152981       1.90341607      -0.00022161       0.00077208      -0.00001884
O       25.95085704     -23.25909164       0.37364474      -0.00043648      -0.00023767      -0.00032961
O       25.82526049     -24.26575725       2.63853814       0.00037907       0.00009163       0.00034475
O       26.08245885     -21.81176530       2.32763678      -0.00064027      -0.00022703      -0.00049677
H       24.93058412     -24.43396194       2.29566998      -0.00023114       0.00039363       0.00058592
H       26.59211226     -21.65277953       3.14108846       0.00009992       0.00045181      -0.00053729
N       30.41596589     -24.85356813       2.23462316       0.00020165       0.00017660       0.00023102
C       31.39450169     -24.39901509       3.19687671       0.00042379      -0.00000322       0.00024813
C       29.63142492     -25.97699727       2.69584177      -0.00015078       0.00017348      -0.00007614
H       29.79102176     -24.09888826       1.97743280      -0.00019048       0.00006088       0.00048336
H       32.14275610     -25.18469964       3.36132434      -0.00005403       0.00009588      -0.00055063
H       31.91976419     -23.52486257       2.79704677      -0.00008735       0.00016373       0.00043601
H       30.96967321     -24.12734339       4.18121712       0.00016898      -0.00083925      -0.00003330
H       30.26816121     -26.86533145       2.79697763       0.00027334      -0.00006102       0.00007526
H       29.13341363     -25.80220249       3.66725118      -0.00046873      -0.00054003      -0.00022545
H       28.85612927     -26.20701285       1.95598776       0.00070633      -0.00047927      -0.00026044
