17
Properties=species:S:1:pos:R:3:forces:R:3 -1912.03055=T energy=-22728.747719241528 free_energy=-22728.747719241528 pbc="F F F"
S       -8.02235339     -14.49379941      21.11844939       0.00004427      -0.00000743      -0.00012114
O       -6.64885809     -14.80904907      21.41718662      -0.00008464       0.00018114       0.00012052
O       -8.40448461     -13.70124996      19.97758979       0.00024807      -0.00039834       0.00004792
O       -8.83308530     -15.84131641      21.14413918       0.00001658       0.00037378      -0.00018275
O       -8.64333168     -13.71738222      22.40330079       0.00003170       0.00006101      -0.00034592
H       -9.82320234     -15.62999489      20.98889639       0.00028292      -0.00011264      -0.00000870
H       -8.10963465     -13.94876857      23.18146165      -0.00076893       0.00008245      -0.00032928
N      -11.43317171     -15.29467428      20.95019033       0.00005995      -0.00012991       0.00008390
C      -12.02977343     -15.82920438      19.73085574      -0.00008136       0.00012538      -0.00008321
C      -11.61872080     -13.84955480      21.09182665       0.00018760      -0.00005902       0.00007266
H      -11.79665963     -15.78035897      21.76396401       0.00017076       0.00007060      -0.00019550
H      -11.57038834     -15.33767637      18.86784892       0.00012343       0.00001970       0.00024314
H      -11.83123961     -16.90005216      19.65579813      -0.00028201       0.00008109      -0.00001131
H      -13.11574799     -15.66165504      19.68138759      -0.00016491       0.00009769       0.00025018
H      -11.08701686     -13.34983718      20.27942589       0.00054381      -0.00007363       0.00019947
H      -12.67652462     -13.55235559      21.05000303       0.00021990      -0.00001900      -0.00011291
H      -11.19093882     -13.51349939      22.03561822      -0.00054701      -0.00029280       0.00037305
