17
Properties=species:S:1:pos:R:3:forces:R:3 -1911.72797=T energy=-22728.28871355481 free_energy=-22728.28871355481 pbc="F F F"
S       20.59689149     -24.21971004      23.84018115       0.00026506      -0.00024830      -0.00032981
O       20.27389778     -24.96168948      22.64322084      -0.00014373       0.00012231      -0.00038552
O       19.58186868     -23.60285506      24.64456249      -0.00029188       0.00019431       0.00059712
O       21.54543092     -25.13830706      24.76598801      -0.00013545      -0.00028846      -0.00000312
O       21.69455726     -23.10579574      23.50618975      -0.00035650      -0.00001675      -0.00023574
H       21.05054647     -25.93946898      25.01270272       0.00066088       0.00033996      -0.00031924
H       22.30910931     -23.46054801      22.84168856      -0.00003619      -0.00000745       0.00039337
N       18.34627037     -21.15314858      22.23415866       0.00022017       0.00042631      -0.00052623
C       17.77715149     -22.44700792      21.89626267       0.00009471       0.00057137       0.00022604
C       19.63125927     -20.91991883      21.59947109       0.00036362      -0.00000381      -0.00020897
H       17.69742036     -20.41260935      21.98972637      -0.00029160       0.00006969      -0.00043111
H       18.44810116     -23.23473597      22.25569752       0.00030421      -0.00024809       0.00044965
H       16.81843543     -22.57176476      22.40844676      -0.00064269      -0.00011662       0.00013205
H       17.61895818     -22.60692018      20.81545066      -0.00003424      -0.00024381      -0.00010642
H       20.33904070     -21.68278701      21.94065973      -0.00003547      -0.00052346       0.00042514
H       19.60710566     -20.94880033      20.49534874      -0.00001368      -0.00021817      -0.00024506
H       20.02260222     -19.94639189      21.90981634       0.00007286       0.00019118       0.00056799
