17
Properties=species:S:1:pos:R:3:forces:R:3 -1911.74056=T energy=-22728.392383959563 free_energy=-22728.392383959563 pbc="F F F"
S        7.71825668     -21.71500986       4.06407832       0.00010125      -0.00001216       0.00012487
O        7.24354625     -21.75724821       2.70408139      -0.00013843      -0.00007117      -0.00013399
O        6.77254543     -21.66845367       5.15323936      -0.00005671      -0.00003923      -0.00006425
O        8.80783215     -22.87120445       4.29957011       0.00017494       0.00064142       0.00013980
O        8.81646405     -20.55730359       4.23861989      -0.00028422       0.00081009      -0.00010323
H        8.42880679     -23.72967902       4.04032552      -0.00022626      -0.00045862      -0.00012702
H        8.40208600     -19.69283623       4.06969332       0.00042319      -0.00086455       0.00016129
N        9.94257613     -22.01610561       8.08349864      -0.00009550       0.00006956       0.00012123
C       10.51854324     -21.23688623       7.00084044       0.00016841       0.00018245      -0.00007427
C        8.81452189     -22.82194499       7.64452888       0.00007038       0.00019106      -0.00004700
H       10.65329629     -22.61096439       8.49826945       0.00009130      -0.00007966       0.00005707
H        9.74700702     -20.57563498       6.59507693      -0.00002989      -0.00016497      -0.00003934
H       11.33001430     -20.60884306       7.38251153      -0.00009397      -0.00016778      -0.00001486
H       10.91231649     -21.84261021       6.16677723      -0.00006343       0.00014934      -0.00001423
H        8.01716402     -22.15537598       7.30036957       0.00001792       0.00001510       0.00006805
H        9.04645943     -23.51414262       6.81833919       0.00004730      -0.00014925      -0.00011840
H        8.42113691     -23.40161007       8.48560329      -0.00010623      -0.00005160       0.00006422
