17
Properties=species:S:1:pos:R:3:forces:R:3 -1912.04682=T energy=-22728.836899773833 free_energy=-22728.836899773833 pbc="F F F"
S        5.55527177     -20.12512028      22.87762184       0.00044101       0.00013922      -0.00057766
O        5.52047412     -20.78178013      21.58975751      -0.00003587       0.00003064       0.00080466
O        5.09479256     -18.75721974      22.96739107      -0.00010487      -0.00010991      -0.00008333
O        4.88579938     -21.01526890      23.97245183      -0.00037578      -0.00032812      -0.00007600
O        7.03400994     -20.22909480      23.49295365      -0.00012583       0.00023155      -0.00020222
H        3.90149947     -21.12589685      23.72398514       0.00006349      -0.00018160      -0.00000000
H        7.64586872     -19.71624731      22.93375484       0.00005707      -0.00002779      -0.00000074
N        2.28188588     -21.12671552      23.30053076      -0.00000629       0.00018135      -0.00029044
C        1.79945526     -22.48672367      23.08546663       0.00003703      -0.00004864       0.00007597
C        2.13593046     -20.27421498      22.11951333      -0.00012784       0.00022905       0.00009426
H        1.81254608     -20.70992151      24.09884313      -0.00007551       0.00008276       0.00018437
H        2.36481404     -22.93542902      22.26310863      -0.00001647       0.00000632      -0.00010083
H        1.97103732     -23.08782402      23.98028685      -0.00007952       0.00004328      -0.00000665
H        0.73095156     -22.52483329      22.82668516       0.00003400      -0.00007436      -0.00000614
H        2.71555025     -20.71058494      21.30170016      -0.00009826       0.00020181       0.00018905
H        1.09156779     -20.17341332      21.79284235       0.00037451      -0.00024148       0.00000202
H        2.54665958     -19.28577678      22.32889708       0.00003918      -0.00013442      -0.00000632
