17
Properties=species:S:1:pos:R:3:forces:R:3 -1912.03963=T energy=-22728.75128626008 free_energy=-22728.75128626008 pbc="F F F"
S       12.87927695       4.17994956     -19.16012941      -0.00002884      -0.00002968      -0.00015248
O       13.27538988       3.90036844     -20.51685297      -0.00012290       0.00000095       0.00015354
O       11.77539653       5.05088948     -18.84027076      -0.00011480      -0.00023448      -0.00005782
O       12.71121477       2.80347617     -18.41898198       0.00016606      -0.00013053       0.00024749
O       14.16625380       4.80973943     -18.39462775       0.00019425       0.00020574      -0.00011418
H       12.34466700       2.98327109     -17.47842072       0.00020263      -0.00023203       0.00000978
H       14.96001955       4.59128144     -18.91087745      -0.00061780       0.00018919       0.00019825
N       11.93022944       3.31691882     -15.92594061      -0.00055616      -0.00024996       0.00031740
C       10.48141016       3.36489371     -15.74941501      -0.00043178       0.00023679      -0.00025491
C       12.58828491       4.57733408     -15.57530761       0.00012691      -0.00014839       0.00011847
H       12.32614033       2.54926204     -15.39218938       0.00009532       0.00012477      -0.00005309
H       10.08025623       4.15937118     -16.38611653       0.00000082       0.00013969       0.00020231
H       10.03531950       2.41991788     -16.06547354       0.00025739       0.00030372      -0.00015254
H       10.18185186       3.57283138     -14.71141113       0.00035764      -0.00000243      -0.00081724
H       12.12871711       5.38001859     -16.15526544      -0.00026485      -0.00018939      -0.00003766
H       12.49229480       4.82376186     -14.50886069       0.00023813       0.00018667       0.00049013
H       13.64352579       4.52999084     -15.84241849       0.00049776      -0.00017082      -0.00009738
