17
Properties=species:S:1:pos:R:3:forces:R:3 -1912.03132=T energy=-22728.79232603104 free_energy=-22728.79232603104 pbc="F F F"
S       27.32355749     -23.02220767       9.54988267       0.00043436      -0.00002331      -0.00018749
O       28.49356036     -23.07513607       8.71151025      -0.00003242       0.00013761       0.00020206
O       26.03607501     -22.62845054       9.03634094       0.00017285      -0.00016329       0.00010471
O       27.22681453     -24.39318619      10.31476472       0.00019383      -0.00001431       0.00023609
O       27.59937480     -22.00266701      10.78240978      -0.00036829       0.00030917      -0.00002457
H       26.54843113     -24.27161763      11.07921903      -0.00016277       0.00002377       0.00014713
H       28.45664642     -22.23131759      11.18041123       0.00058014       0.00014576      -0.00007393
N       25.55083225     -23.75484451      12.25556265      -0.00020150       0.00002713      -0.00036546
C       25.61684637     -24.60747035      13.43301593       0.00027151      -0.00013155       0.00006461
C       24.20497289     -23.61915402      11.70415352      -0.00021566      -0.00011319       0.00019899
H       25.95439499     -22.84072568      12.43997668      -0.00013940      -0.00018443      -0.00013190
H       25.28831964     -25.61436567      13.15731736      -0.00075094       0.00043869       0.00016855
H       26.64818124     -24.67322903      13.78598125       0.00026472      -0.00063142      -0.00068394
H       24.98219096     -24.24833396      14.25675142       0.00031979       0.00058819       0.00026155
H       23.80403772     -24.61763699      11.50142130       0.00005220       0.00012396      -0.00021855
H       23.51731375     -23.10406514      12.39022531      -0.00019880      -0.00031386       0.00021794
H       24.25252518     -23.07315064      10.76080752      -0.00021961      -0.00021885       0.00008413
