17
Properties=species:S:1:pos:R:3:forces:R:3 -1911.71914=T energy=-22728.272494102093 free_energy=-22728.272494102093 pbc="F F F"
S        8.89511145     -18.20707688      21.46006680      -0.00000767       0.00013081      -0.00009122
O        9.15732592     -19.22032806      20.47397465      -0.00004250      -0.00001323       0.00012255
O        8.04105401     -17.07441450      21.22934786       0.00006485      -0.00019002       0.00008386
O        8.41722183     -18.98407161      22.78837750      -0.00001144       0.00030246       0.00008547
O       10.30386368     -17.60320836      21.96306091       0.00003375       0.00008889      -0.00009966
H        8.41910273     -18.34851216      23.52396851      -0.00001942      -0.00033445      -0.00016399
H       10.99308019     -18.26717867      21.79399647      -0.00003958      -0.00004385       0.00003284
N        4.90507266     -19.92736327      20.28163313       0.00032537      -0.00058889       0.00008201
C        4.92653131     -18.55617358      20.75815274      -0.00030110      -0.00001156       0.00020161
C        5.99343787     -20.72139126      20.82555583      -0.00020562       0.00004804       0.00006106
H        4.01284035     -20.35835270      20.50329755       0.00013714      -0.00002585       0.00003095
H        5.88921328     -18.10503093      20.49384841       0.00020961       0.00016784       0.00013950
H        4.13897563     -17.97559101      20.26632546       0.00004318       0.00003584      -0.00002360
H        4.79682942     -18.45556535      21.85069307       0.00013645       0.00000372      -0.00017607
H        6.94298467     -20.30174724      20.47652168      -0.00007947       0.00008854      -0.00010265
H        6.02557171     -20.75614933      21.92882921      -0.00022550       0.00008487      -0.00036669
H        5.92833557     -21.74785649      20.45099153      -0.00001819       0.00025667       0.00018391
