17
Properties=species:S:1:pos:R:3:forces:R:3 -1912.03846=T energy=-22728.8070589895 free_energy=-22728.8070589895 pbc="F F F"
S        8.79782417     -16.96569568      -5.16531023       0.00015286      -0.00086173       0.00019868
O        8.80825464     -18.31072129      -5.69850690      -0.00010830      -0.00032711      -0.00008893
O        9.67356794     -15.98010730      -5.75292723       0.00047100       0.00061166      -0.00018578
O        7.29112155     -16.40691468      -5.15626458      -0.00023335       0.00018001       0.00023118
O        8.93129616     -16.99100566      -3.60530038      -0.00020370       0.00015572       0.00016326
H        6.98304521     -16.30283852      -6.07516900      -0.00004817       0.00017855      -0.00032630
H        9.83178051     -17.40926881      -3.37653315       0.00000692       0.00005800      -0.00011743
N       11.19560939     -18.27343304      -2.91841246       0.00007948      -0.00027266       0.00045568
C       11.68437546     -19.11936760      -4.00551912       0.00006655       0.00026649       0.00043368
C       10.67241438     -19.03442195      -1.78892382      -0.00009830      -0.00024152       0.00010262
H       11.92209163     -17.63328617      -2.61380713      -0.00018902      -0.00010259      -0.00027850
H       10.83554779     -19.63463682      -4.46102303      -0.00004630       0.00005918       0.00000677
H       12.15365977     -18.49827361      -4.77097258      -0.00012822       0.00003700      -0.00031327
H       12.41022306     -19.87291451      -3.66639640      -0.00006802       0.00009701       0.00000370
H        9.86142954     -19.67967500      -2.14142762       0.00033437      -0.00013988      -0.00003775
H       11.43517902     -19.66978800      -1.31739511      -0.00032496       0.00026056      -0.00025308
H       10.26028765     -18.35171012      -1.04417134       0.00033711       0.00004134       0.00000552
