17
Properties=species:S:1:pos:R:3:forces:R:3 -1912.00278=T energy=-22728.779807811166 free_energy=-22728.779807811166 pbc="F F F"
S        6.85202248      -5.12643758     -17.25894607       0.00029735      -0.00011527      -0.00026034
O        7.15358555      -6.19291188     -18.18068406      -0.00002533      -0.00004125       0.00000119
O        5.90643960      -4.08133095     -17.56907711      -0.00033391       0.00019634      -0.00007710
O        6.50274089      -5.77383855     -15.86884647      -0.00015008      -0.00012279       0.00018823
O        8.25259745      -4.37153138     -16.92479749       0.00010845       0.00013421       0.00010047
H        6.14037205      -5.03489217     -15.25581466      -0.00003219       0.00008988       0.00009752
H        8.97658228      -4.94419133     -17.22874265       0.00010513      -0.00007416      -0.00005412
N        5.63081858      -3.63427387     -14.56775115       0.00012672       0.00005714      -0.00009088
C        6.81864697      -2.90729509     -14.12955183       0.00006294      -0.00026047       0.00001559
C        4.63400050      -3.81215614     -13.52330028       0.00000499       0.00003109      -0.00002158
H        5.23217980      -3.20547072     -15.39945370       0.00010067      -0.00011477       0.00020374
H        7.23657388      -3.41011617     -13.25141545      -0.00021036       0.00010861      -0.00009680
H        7.57165208      -2.92239313     -14.91886899       0.00001573      -0.00008593      -0.00013918
H        6.59897249      -1.86464318     -13.85981438      -0.00014035       0.00011042       0.00014828
H        5.07610719      -4.39885931     -12.71231314       0.00000480       0.00001836      -0.00010770
H        4.27315855      -2.85901329     -13.10836787      -0.00001827       0.00013795       0.00011187
H        3.78289919      -4.36994993     -13.91893312       0.00008393      -0.00006928      -0.00001943
