17
Properties=species:S:1:pos:R:3:forces:R:3 -1912.06179=T energy=-22728.77980740569 free_energy=-22728.77980740569 pbc="F F F"
S       29.55421415     -26.33013306       1.25492332      -0.00008624      -0.00026002       0.00007686
O       30.92633536     -25.92019762       1.07651802       0.00039124       0.00012493      -0.00010459
O       29.10737553     -27.67217219       0.97704131       0.00013876       0.00021291      -0.00008770
O       29.19717837     -26.01892885       2.81023467       0.00036652      -0.00045907       0.00010678
O       28.59331739     -25.33597592       0.50551170      -0.00004021       0.00008838       0.00016177
H       28.57795929     -26.70374672       3.11367187      -0.00045639       0.00037383      -0.00005531
H       28.99454113     -24.39378639       0.57336319      -0.00030236      -0.00024483       0.00009377
N       29.89735208     -23.05851294       0.88297254      -0.00021225       0.00008640      -0.00023382
C       29.57869474     -22.62264793       2.23941875       0.00000766      -0.00002006      -0.00039577
C       29.76834844     -22.00859660      -0.11560581      -0.00021991       0.00012121       0.00008026
H       30.81431670     -23.49744984       0.85133669       0.00023465      -0.00018610       0.00074071
H       28.57722919     -22.18030871       2.24222317      -0.00004765      -0.00008247      -0.00046005
H       29.57085253     -23.48292697       2.91029001       0.00018471      -0.00047542       0.00053474
H       30.28871315     -21.87461443       2.61947283       0.00039557       0.00017893      -0.00017477
H       28.72859534     -21.66811453      -0.13447561       0.00011870       0.00066558      -0.00062344
H       30.41600217     -21.14235219       0.08697011      -0.00016436      -0.00020404       0.00032422
H       30.01120925     -22.40815036      -1.10222173      -0.00030873       0.00007981       0.00001650
