17
Properties=species:S:1:pos:R:3:forces:R:3 -1911.75806=T energy=-22728.33643798828 free_energy=-22728.33643798828 pbc="F F F"
S       13.32185072     -23.54132573       4.53446560       0.00003787       0.00009986      -0.00018401
O       12.80743107     -23.61652182       3.19794389      -0.00054014       0.00005832       0.00019109
O       14.44957798     -22.72349849       4.90848603      -0.00046223      -0.00011674      -0.00066775
O       12.07727219     -23.16211274       5.48210828       0.00044614       0.00010858       0.00042308
O       13.67680097     -25.02488389       5.05370010      -0.00027247      -0.00018105      -0.00024120
H       12.41890378     -22.88421796       6.34962367       0.00016754      -0.00020495      -0.00026796
H       13.05056118     -25.64923987       4.64818779       0.00015292       0.00020466       0.00011608
N       17.15694314     -23.57320719       3.86008703      -0.00008960       0.00003160       0.00035808
C       17.80309271     -24.40632889       4.85068818       0.00022137      -0.00020933      -0.00009257
C       17.06456277     -24.19108514       2.55482926       0.00019450       0.00032121       0.00039095
H       16.24570840     -23.26762582       4.18459030       0.00010510       0.00002240      -0.00035189
H       18.85447473     -24.56425674       4.57661030       0.00046537      -0.00006912       0.00008017
H       17.79331430     -23.89814803       5.82189033       0.00013836       0.00017036      -0.00007156
H       17.33652643     -25.40067444       4.97824813      -0.00030344      -0.00021559       0.00004133
H       18.07137601     -24.34918073       2.14620439      -0.00015859       0.00003286       0.00021859
H       16.54366990     -25.16611636       2.55299884       0.00011146       0.00005932      -0.00005179
H       16.53786417     -23.51982850       1.86679393      -0.00021393      -0.00011244       0.00010929
