17
Properties=species:S:1:pos:R:3:forces:R:3 -1912.00661=T energy=-22728.784915050244 free_energy=-22728.784915050244 pbc="F F F"
S        6.67812686      -4.07948643     -14.71499437      -0.00016054      -0.00022683      -0.00029812
O        7.80960054      -3.32235530     -14.24872612       0.00065136       0.00007868       0.00018656
O        5.39151361      -3.43838355     -14.89358459      -0.00002611       0.00031505      -0.00022313
O        7.07789483      -4.76176894     -16.11455021       0.00008166      -0.00046819      -0.00022754
O        6.50895496      -5.38189781     -13.84724485      -0.00015998      -0.00033574       0.00015160
H        6.28071395      -4.80181041     -16.67168784      -0.00006817       0.00040021      -0.00020966
H        6.35565362      -5.07189002     -12.88793836      -0.00030562       0.00016925       0.00011686
N        6.24088759      -4.19741972     -11.45345594       0.00015305       0.00036317       0.00013927
C        6.42356312      -5.00521738     -10.25690314       0.00011526      -0.00005931       0.00012016
C        4.97958788      -3.45864884     -11.47343879       0.00009739      -0.00024533       0.00030443
H        7.02584161      -3.56474486     -11.58942933      -0.00011846       0.00007440       0.00000692
H        5.62004710      -5.74645625     -10.20933294       0.00004390      -0.00000255      -0.00005325
H        7.37229943      -5.54203197     -10.31835268       0.00039768      -0.00009841       0.00009370
H        6.40698798      -4.41411523      -9.32876101      -0.00017118       0.00017723      -0.00052711
H        4.15673067      -4.16311106     -11.31672847      -0.00015359       0.00012994       0.00004182
H        4.92643797      -2.68474750     -10.69461589      -0.00053926       0.00001609       0.00001688
H        4.84764133      -2.99737215     -12.45380627       0.00016229      -0.00028761       0.00036067
