17
Properties=species:S:1:pos:R:3:forces:R:3 -1912.03470=T energy=-22728.788404216397 free_energy=-22728.788404216397 pbc="F F F"
S       31.23530144     -21.06176570      21.44859564      -0.00017040       0.00012419       0.00010570
O       32.17584586     -21.39809925      20.40948726       0.00000179       0.00003219       0.00001705
O       30.37727314     -19.90732808      21.35921764       0.00024641      -0.00037783       0.00008082
O       30.39391624     -22.34742114      21.77546446      -0.00000715       0.00020713      -0.00000671
O       32.06838197     -20.87267624      22.83084017      -0.00026920       0.00016124      -0.00010456
H       29.91608204     -22.17889433      22.66978828       0.00005752      -0.00003851      -0.00004227
H       32.91843850     -21.33259594      22.72829239       0.00016236      -0.00012083      -0.00006530
N       29.39855225     -21.67794707      24.13452801      -0.00007805      -0.00006784       0.00004751
C       28.98389046     -22.79455913      24.97047598       0.00003269       0.00001061       0.00007519
C       28.36306900     -20.66375726      23.95368441      -0.00011012      -0.00015318      -0.00002551
H       30.25553223     -21.25635528      24.48067820       0.00003485      -0.00005236       0.00003132
H       28.13178984     -23.29108926      24.49611659       0.00005515       0.00011081      -0.00004390
H       29.79677694     -23.51954772      25.04854683      -0.00007984       0.00013788       0.00004196
H       28.68655682     -22.48371753      25.98304879       0.00007428      -0.00008568      -0.00009710
H       27.46066279     -21.14649398      23.56465473      -0.00001311       0.00004313       0.00008893
H       28.10393100     -20.15183057      24.89165414       0.00000691      -0.00003427      -0.00013421
H       28.70029660     -19.93012034      23.22007966       0.00005563       0.00010323       0.00003101
