17
Properties=species:S:1:pos:R:3:forces:R:3 -1912.03048=T energy=-22728.779807608425 free_energy=-22728.779807608425 pbc="F F F"
S       30.15619173     -23.71832924       3.02628053       0.00012237       0.00031590      -0.00027832
O       29.54775946     -24.80052838       2.29377608       0.00001788      -0.00007057       0.00005138
O       30.82375785     -22.62010123       2.36990055      -0.00001371      -0.00029743       0.00018136
O       29.09418683     -23.16976451       4.04840042      -0.00004441      -0.00002441       0.00011939
O       31.25975388     -24.37525875       4.02316451      -0.00002715       0.00010124      -0.00006498
H       29.46613976     -22.30704480       4.46136112       0.00000039       0.00003461       0.00004283
H       31.09038597     -25.33143369       4.06218783      -0.00004050      -0.00004325      -0.00005158
N       30.35700839     -21.00327780       4.91004047       0.00006049      -0.00004580      -0.00004389
C       31.33108153     -21.46041551       5.89677462      -0.00005281      -0.00001788       0.00006050
C       29.56601979     -19.86489707       5.35114813      -0.00002114       0.00009856       0.00006890
H       30.80673072     -20.82511737       4.01532739      -0.00000327       0.00001545      -0.00004157
H       30.81034326     -21.66825998       6.83711560       0.00009363      -0.00000065      -0.00005261
H       31.79496896     -22.38666994       5.55453231       0.00000617       0.00005472       0.00005680
H       32.11460956     -20.71474013       6.09224580       0.00000262      -0.00006942       0.00001740
H       28.99619283     -20.15617895       6.23874412      -0.00001621       0.00004057       0.00004562
H       30.18071663     -18.98763889       5.60302545      -0.00008975      -0.00010452      -0.00007217
H       28.85592894     -19.58619339       4.57004424       0.00000536       0.00001292      -0.00003895
