17
Properties=species:S:1:pos:R:3:forces:R:3 -1911.72793=T energy=-22728.27179515379 free_energy=-22728.27179515379 pbc="F F F"
S        5.84585799      -6.17985398     -17.31315967       0.00018848       0.00002399      -0.00006080
O        7.07936505      -5.93966056     -18.01028631      -0.00006521       0.00002917       0.00005043
O        4.63227622      -5.45098229     -17.56680266      -0.00001717       0.00002086       0.00002074
O        5.54172544      -7.75537010     -17.47982409      -0.00011599      -0.00005344       0.00008277
O        6.09717244      -6.09908728     -15.72245624      -0.00013427       0.00006174      -0.00010346
H        4.58610313      -7.89091499     -17.36617415       0.00006571      -0.00001001      -0.00000969
H        6.77783934      -6.75444076     -15.49392195       0.00007913      -0.00009567       0.00001107
N        6.83052171      -1.87468139     -16.52276806       0.00006378       0.00004228       0.00001846
C        7.90195195      -2.73948462     -16.98286037       0.00015509       0.00012022       0.00011694
C        5.72992411      -2.61983520     -15.93515929      -0.00002819       0.00001978      -0.00002247
H        7.19081504      -1.19690984     -15.85815572      -0.00006671      -0.00005707      -0.00005652
H        7.48499073      -3.47914000     -17.67487415      -0.00001277       0.00000192      -0.00007299
H        8.65105853      -2.15527904     -17.52761283      -0.00010517      -0.00006732      -0.00000471
H        8.41616316      -3.29090768     -16.17566622      -0.00001935      -0.00001135      -0.00002724
H        5.27203128      -3.23994237     -16.71307142      -0.00000950      -0.00000681       0.00003333
H        6.02015703      -3.28909775     -15.10775885      -0.00001666      -0.00004167       0.00003922
H        4.96419678      -1.92858263     -15.56951518       0.00003882       0.00002351      -0.00001510
