17
Properties=species:S:1:pos:R:3:forces:R:3 -1912.06871=T energy=-22728.779797471398 free_energy=-22728.779797471398 pbc="F F F"
S       28.66768906     -21.81231889      12.89433989      -0.00043091       0.00024233       0.00024792
O       28.70214319     -21.86659126      11.45428708      -0.00013912      -0.00013199      -0.00094700
O       27.70543136     -21.01370370      13.61463446      -0.00053877      -0.00036484       0.00009894
O       28.65267429     -23.28985115      13.43304222       0.00042504      -0.00033969      -0.00002656
O       30.12869861     -21.29910838      13.38946388       0.00023484       0.00050206       0.00032389
H       28.47334904     -23.25857932      14.44296773       0.00035594       0.00021610       0.00029865
H       30.73838025     -21.37301131      12.63624473       0.00013446      -0.00005185       0.00048025
N       28.18513945     -22.84177384      16.00448515      -0.00027261      -0.00043741      -0.00036423
C       29.46067026     -22.44479694      16.59346967      -0.00065529      -0.00048313      -0.00048766
C       27.47714133     -23.85694813      16.76893790      -0.00009459       0.00013821       0.00000060
H       27.60115065     -22.02803054      15.82763433      -0.00009541      -0.00033142       0.00038809
H       30.07272443     -23.33955520      16.74621441       0.00052975      -0.00019978      -0.00013685
H       29.99277195     -21.78349369      15.90803280       0.00034914      -0.00002488       0.00004430
H       29.33866688     -21.93907843      17.56170719       0.00012434       0.00009570       0.00018772
H       28.09541168     -24.75878140      16.81170170      -0.00013936       0.00020331       0.00015447
H       27.25141924     -23.53907731      17.79795129       0.00016021       0.00026925      -0.00038576
H       26.54273493     -24.11147399      16.26479352       0.00005221       0.00069794       0.00012317
