17
Properties=species:S:1:pos:R:3:forces:R:3 -1911.74226=T energy=-22728.332801531065 free_energy=-22728.332801531065 pbc="F F F"
S       13.80012954     -19.86089584      19.88862194       0.00017535      -0.00043067      -0.00072955
O       13.34853616     -20.93802228      19.05257874      -0.00001591       0.00039959       0.00049216
O       13.89082762     -18.50236012      19.40466559      -0.00003228      -0.00002325       0.00017424
O       12.93590560     -19.90102090      21.23447032      -0.00011253       0.00006336       0.00012231
O       15.20978345     -20.25221932      20.56547239      -0.00020882       0.00015962       0.00020184
H       13.13919393     -19.10885935      21.76017592      -0.00006591      -0.00006781      -0.00001528
H       15.90285348     -20.20124686      19.88386345       0.00023948      -0.00006283      -0.00024971
N        9.68089060     -19.12363000      18.46058930      -0.00041329       0.00078648      -0.00039997
C       10.89019471     -18.85087417      17.69932855       0.00002253      -0.00031785      -0.00001162
C        9.95742242     -19.79380238      19.72050520      -0.00004151       0.00037339       0.00003415
H        9.17673398     -18.25910695      18.63094734       0.00062532      -0.00064681      -0.00002839
H       11.38097024     -19.80103805      17.46447573      -0.00009188       0.00014154       0.00015555
H       10.63250735     -18.36972347      16.75050215      -0.00014114       0.00011018       0.00005659
H       11.62550374     -18.22163337      18.22611920       0.00003931       0.00006371       0.00010687
H       10.41106639     -20.76914594      19.51041636       0.00017433      -0.00041451       0.00013668
H       10.64317244     -19.24630145      20.38755359       0.00000286      -0.00000006      -0.00015792
H        9.02136360     -19.97913210      20.25693017      -0.00015616      -0.00013386       0.00011204
