10
-1708.30157
S    0.229628281    -4.265004044    -33.004331179
O    -0.431412043    -5.235334174    -33.829979747
O    0.116871668    -2.855250491    -33.190490607
O    -0.141190203    -4.577934436    -31.444002359
O    1.810944544    -4.685521161    -32.992217654
H    -0.070860319    -3.845148579    -30.810049634
H    2.032898902    -5.564027673    -33.345981250
O    -2.778613243    -6.723128136    -34.784890025
H    -2.050129653    -6.383921072    -34.252402023
H    -2.660025284    -6.298561503    -35.630368081
