10
-1708.40371
S    0.607728795    2.536860078    -31.065582430
O    1.888690552    1.959232524    -31.332098916
O    -0.189765264    3.176332695    -32.088901069
O    -0.386690846    1.459413658    -30.375411848
O    0.830994607    3.589092088    -29.830267402
H    -1.345113136    1.532996557    -30.688220063
H    1.674354715    3.521734928    -29.352277871
O    -2.621691489    2.087365681    -31.704204788
H    -2.077877216    2.809113398    -32.081516068
H    -2.794028165    1.498187158    -32.438265360
