10
-1708.40668
S    -7.286704303    -12.717025859    -20.181357876
O    -6.318003300    -13.683332962    -20.596996829
O    -8.094081854    -11.968620221    -21.119130580
O    -8.348190059    -13.368551628    -19.144487990
O    -6.493070854    -11.669039627    -19.203572944
H    -9.304734821    -13.083494474    -19.305754089
H    -5.618813865    -11.954147747    -18.887632293
O    -10.591910578    -12.358275629    -20.193310269
H    -9.986666862    -11.797443609    -20.720389590
H    -10.963327703    -12.972616544    -20.827776773
