10
-1708.32798
S    -1.436878335    1.981654382    -34.418243735
O    -0.080513560    1.679994796    -34.750405513
O    -2.164148980    3.065663090    -35.001847307
O    -2.328543607    0.602203902    -34.711616571
O    -1.616236350    1.964059307    -32.807423846
H    -3.182581378    0.720645199    -35.147476443
H    -1.576673485    1.054577079    -32.388227055
O    -1.548283357    -0.654410320    -32.252192054
H    -0.672736815    -1.047217263    -32.294097737
H    -1.962088923    -0.856253178    -33.104903076
