10
-1708.40220
S    -8.712611095    -8.798265386    -29.354442094
O    -8.092825420    -10.100624789    -29.455600031
O    -8.434427974    -7.724225107    -30.255707571
O    -10.340772326    -9.007642358    -29.390121975
O    -8.514715234    -8.349988000    -27.810300830
H    -10.857163508    -8.326832603    -29.850656161
H    -8.161230349    -9.084759774    -27.215928228
O    -7.587026176    -10.680169315    -26.875435666
H    -7.513369593    -10.914131064    -27.822084534
H    -8.178422737    -11.325779792    -26.493999659
