10
-1708.17895
S    -2.251291337    -7.769151595    -32.636672986
O    -3.034036776    -7.995486067    -33.808194495
O    -1.794314281    -6.480002127    -32.234341416
O    -2.992362828    -8.460364144    -31.336206418
O    -0.981111579    -8.812355758    -32.691702276
H    -2.412554192    -8.853668145    -30.655433107
H    -0.912651176    -9.401155009    -33.459467850
O    -3.861319096    -7.255805064    -29.070045928
H    -3.522133459    -6.395335724    -29.312010248
H    -3.974289063    -7.714715243    -29.901274817
