10
-1708.30091
S    -2.074413487    -7.752483406    -38.613417857
O    -0.994624802    -8.677194826    -38.497868583
O    -2.815235267    -7.582671922    -39.826679126
O    -3.206263592    -8.127619826    -37.442158830
O    -1.658881395    -6.316486827    -37.987692099
H    -4.101973335    -8.310305283    -37.752009197
H    -1.626837237    -6.281877248    -36.987070448
O    -1.961176974    -6.580124238    -35.342089584
H    -2.548644289    -7.343374235    -35.446161400
H    -2.493868845    -5.892274162    -34.941226085
