10
-1708.38219
S    -10.593914766    -11.446148159    -26.959490901
O    -10.468974141    -12.858168127    -26.799031052
O    -10.519640930    -10.799068861    -28.250906790
O    -11.980964543    -10.921431441    -26.291513839
O    -9.533979092    -10.719482462    -25.943539929
H    -12.466031520    -10.227506829    -26.836235762
H    -9.629622670    -10.909055041    -24.997311435
O    -12.698079381    -9.219143272    -28.229417647
H    -11.826879122    -9.473299376    -28.596247478
H    -13.338888893    -9.494291537    -28.881983504
