10
-1708.24939
S    -0.378341955    3.068797831    -17.178917034
O    -1.652333159    3.347834316    -17.761826020
O    0.449950764    4.088257131    -16.602380356
O    -0.566058746    1.930387026    -15.995578990
O    0.510063910    2.183903646    -18.209541214
H    -0.067924406    2.080620409    -15.179256633
H    0.154226597    1.310428773    -18.506540249
O    -0.296517758    -0.233222309    -19.037469191
H    0.188001380    -0.929334830    -18.589174971
H    -0.113756398    -0.338924206    -19.973065142
