10
-1708.21092
S    -7.146836561    -6.472846487    -24.122766817
O    -6.502851551    -7.543910203    -24.812643805
O    -7.764360105    -5.385553626    -24.827111230
O    -8.348181712    -7.074657154    -23.149964007
O    -6.182947374    -5.906870886    -22.951197975
H    -9.251778788    -6.822241557    -23.376158019
H    -6.477027658    -5.970776240    -22.009696618
O    -6.901076414    -5.911009110    -20.367178716
H    -6.423168748    -5.256868354    -19.857614911
H    -7.822100934    -5.840331964    -20.115375210
