10
-1708.40542
S    -1.387739368    -6.639838316    -40.117222632
O    -1.673025433    -6.580444229    -41.515806445
O    -2.417607990    -6.723378052    -39.106212058
O    -0.376977149    -7.870118313    -39.800353117
O    -0.413450307    -5.370069353    -39.769102865
H    -0.607179275    -8.384054853    -38.963386345
H    0.243937094    -5.124724991    -40.439304592
O    -1.596452281    -8.815321249    -37.614928342
H    -2.123631027    -7.992386758    -37.653003621
H    -2.223268572    -9.515109980    -37.803306048
