10
-1708.40349
S    -8.910101595    -8.745545190    -18.206612827
O    -8.005205059    -9.715945558    -18.780565614
O    -9.420501257    -7.623664224    -18.929571198
O    -10.219150980    -9.546909567    -17.624249282
O    -8.218223805    -8.283207540    -16.815227823
H    -11.045241834    -9.040395607    -17.565333182
H    -7.393446706    -8.810478724    -16.574308113
O    -6.167787271    -10.004397682    -16.834430261
H    -6.204255373    -10.840230168    -16.374043054
H    -6.466206319    -10.193165205    -17.746474032
