10
-1708.21424
S    -12.293738632    -1.086141460    -26.381343949
O    -12.817751457    -1.613043123    -27.599068712
O    -13.101572379    -0.404476704    -25.409558413
O    -11.498537196    -2.257206017    -25.564165581
O    -11.032078033    -0.127224698    -26.778071575
H    -11.496266846    -2.196540397    -24.592943179
H    -10.735368680    -0.134211051    -27.703603452
O    -14.800534964    0.729239181    -23.650030285
H    -14.152862521    0.440470487    -24.292816459
H    -15.384152561    -0.013519033    -23.546835257
