10
-1708.26920
S    -6.223577651    -11.236994628    -27.619664716
O    -5.102737266    -11.449206414    -28.486969467
O    -7.039519374    -10.065797571    -27.678375531
O    -7.158189680    -12.560239648    -27.604789382
O    -5.632997916    -11.369591463    -26.075144959
H    -7.795622657    -12.666722213    -26.851741800
H    -4.693133788    -11.579856306    -25.992480001
O    -8.721804831    -12.862926945    -25.449048296
H    -8.458617774    -12.250500545    -24.756452377
H    -8.655492482    -13.739794594    -25.068173728
