10
-1708.21491
S    -6.337739309    -9.813509758    -29.834028873
O    -5.120099896    -10.175659077    -30.489653475
O    -7.430529890    -9.169253036    -30.490804567
O    -6.969018619    -11.126751259    -29.078080462
O    -5.892899008    -8.955319906    -28.508736524
H    -7.937054365    -11.263398514    -29.164020145
H    -4.937561498    -8.844205805    -28.367644111
O    -8.124439077    -12.910082556    -27.388077824
H    -8.112603875    -12.975639605    -26.438981929
H    -7.347622495    -12.404589567    -27.630479406
