10
-1708.39783
S    -6.790126343    5.880715248    0.629692954
O    -5.672969016    5.214301812    0.038537216
O    -7.799184384    6.579685865    -0.134930256
O    -7.614077122    4.871023176    1.596747912
O    -6.187871771    6.921030772    1.743180123
H    -8.595126457    5.092079123    1.670326914
H    -5.343944509    6.686092367    2.158860021
O    -10.038518650    5.942328800    1.225711777
H    -10.657343922    5.471489455    0.669906396
H    -9.560789480    6.544777819    0.621641269
