10
-1708.39098
S    1.143428096    -2.960279017    -34.779330837
O    2.234492718    -2.971816644    -33.854843174
O    1.287881243    -3.357743862    -36.161873782
O    -0.107572328    -3.826928856    -34.218043473
O    0.521136150    -1.445491545    -34.712611227
H    -0.394098664    -4.568724695    -34.834499324
H    0.794279268    -0.906760734    -33.949623328
O    -0.281129540    -5.546816617    -36.262055847
H    0.413847001    -4.998250829    -36.675350446
H    -0.996169510    -5.588204466    -36.891531905
