10
-1708.40330
S    -1.276770828    -5.974574709    -38.307038821
O    -2.499820249    -6.624279233    -37.892393024
O    -1.247582317    -4.750936247    -39.044899940
O    -0.354945755    -5.721446875    -36.971960723
O    -0.402549870    -7.127432248    -39.037192964
H    0.229589052    -4.946393463    -36.989255990
H    -0.785233534    -8.054554375    -38.938346753
O    -1.962849234    -9.212074880    -38.417580590
H    -1.813691219    -9.758781852    -37.649186656
H    -2.596299848    -8.523523995    -38.134801458
