10
-1708.29993
S    -7.253731856    4.496899625    -9.096226766
O    -7.465918209    3.799711361    -7.870100677
O    -8.333714840    5.016985760    -9.879505643
O    -6.258912880    5.805648544    -8.789080481
O    -6.204138421    3.694937837    -10.032586023
H    -6.630534418    6.676731962    -8.978927570
H    -5.235292148    3.830263297    -9.814400510
O    -3.760044321    4.484694622    -9.287319772
H    -3.232033988    4.849779322    -9.998842479
H    -4.101137505    5.245009519    -8.792625979
