10
-1708.21495
S    -11.942540457    -6.779880919    -27.475875049
O    -12.512780373    -6.659193186    -28.788607607
O    -12.731427327    -6.837988695    -26.288153013
O    -10.956452075    -8.083028886    -27.453108343
O    -10.826827532    -5.593466058    -27.354140588
H    -10.911062315    -8.595878411    -26.628550836
H    -10.577906892    -5.135459685    -28.177233909
O    -13.937914942    -7.319588713    -30.979864511
H    -14.711181725    -7.662097245    -30.548325538
H    -13.353100623    -7.060471973    -30.267853084
