10
-1708.23488
S    -10.467670691    -8.497569681    -29.711211772
O    -9.697171069    -9.542032084    -30.303460874
O    -11.181088627    -7.517216351    -30.481990012
O    -11.557309169    -9.126586415    -28.669209029
O    -9.493491740    -7.723891217    -28.652146581
H    -12.393490280    -8.640112666    -28.556640121
H    -8.622877303    -8.114195181    -28.470244074
O    -12.547065580    -5.312353619    -31.212380785
H    -11.973153126    -6.000075097    -30.873539767
H    -12.981370537    -5.716382459    -31.955488973
