10
-1708.40641
S    -3.076701829    1.637849267    -25.307814694
O    -2.608137030    0.533276953    -26.114352548
O    -3.909297546    2.677231238    -25.828682190
O    -3.852824398    1.049959644    -23.990166553
O    -1.742008364    2.256690489    -24.626501282
H    -4.523224604    1.631264478    -23.592304946
H    -0.898060022    1.747274916    -24.843088869
O    0.049108848    0.564657575    -25.668389862
H    0.460320061    0.876121404    -26.474580807
H    -0.734079165    0.058220555    -25.965384067
