10
-1708.23502
S    -7.091923073    -5.276875385    -24.433348395
O    -6.706886551    -6.609072951    -24.777274057
O    -8.074023187    -4.546308433    -25.181283828
O    -7.619997342    -5.260927439    -22.868438952
O    -5.768724169    -4.357117071    -24.243301063
H    -8.468995037    -4.829440119    -22.700855962
H    -5.261132644    -4.408063904    -23.397693451
O    -4.273940934    -4.314404727    -22.018682473
H    -4.144190135    -3.405759003    -21.740192498
H    -3.397498464    -4.684048312    -22.135939800
