10
-1708.29198
S    -6.480307844    -11.165873873    -20.227345357
O    -7.126093067    -10.639060541    -21.394574242
O    -7.138416740    -11.317316087    -18.969907505
O    -5.838017765    -12.623452430    -20.602966371
O    -5.100642038    -10.310948202    -20.035255202
H    -5.819548583    -13.296621128    -19.902731941
H    -4.792359186    -9.791054283    -20.798002203
O    -9.112655108    -10.352323474    -23.590938588
H    -8.348884302    -10.362494068    -23.001832650
H    -9.793592079    -10.801194496    -23.099659897
