10
-1708.23992
S    1.971192892    2.600387044    -25.581727927
O    3.098916060    3.212511193    -24.959578524
O    1.869988671    2.392837154    -26.999601345
O    1.675252373    1.152366055    -24.883690716
O    0.641994099    3.408447169    -25.073868373
H    1.393220136    0.424098061    -25.466762818
H    0.694474012    3.828133126    -24.198387734
O    0.974425630    0.935459966    -29.079055410
H    1.341074316    1.468462736    -28.373010204
H    0.495190573    1.544226294    -29.627707632
