10
-1708.15048
S    -7.801109668    -6.163618650    -25.560503349
O    -7.319111378    -7.106169461    -26.517887966
O    -8.409032612    -4.914889320    -25.891555847
O    -8.802899763    -6.911251517    -24.507294872
O    -6.530062640    -5.887634323    -24.538486771
H    -9.559633615    -6.400334601    -24.171818753
H    -5.789365267    -6.521726679    -24.596879433
O    -5.872248789    -5.270839359    -21.996894833
H    -5.460584452    -4.420091401    -22.111773825
H    -6.271058771    -5.475856493    -22.836831181
