10
-1708.30883
S    1.252463557    -5.621016041    -37.926487260
O    2.302861880    -6.213358884    -38.690613235
O    1.079925005    -4.207403257    -37.802371848
O    -0.190254577    -6.213506848    -38.537789369
O    1.137742341    -6.356122184    -36.487945792
H    -0.871919569    -5.566181834    -38.758909450
H    0.678596652    -7.249321402    -36.503134548
O    -0.252742180    -8.543394576    -37.156360454
H    0.247812897    -9.220811701    -37.616122021
H    -0.635486277    -7.986278988    -37.852162796
