10
-1708.22767
S    2.209592889    5.008308618    -27.190486203
O    1.992822855    3.650705433    -27.612339401
O    3.291183957    5.813114548    -27.656154151
O    0.835733898    5.855632065    -27.443838080
O    2.208061449    4.975891048    -25.556658113
H    0.923973198    6.780667221    -27.730396825
H    1.791455931    4.205156468    -25.132244775
O    1.168138250    2.021041675    -29.594528000
H    1.348677415    2.640252812    -28.886327412
H    1.953702430    1.490453314    -29.656581845
