10
-1708.29793
S    -3.223398959    -9.849884935    -33.201979633
O    -1.830571080    -10.159343665    -33.047795568
O    -3.986096621    -10.193909999    -34.358429555
O    -4.024881395    -10.448956799    -31.907384299
O    -3.382409749    -8.252939181    -32.894101451
H    -4.928675037    -10.774568964    -32.044814950
H    -2.643079056    -7.811574555    -32.440034147
O    0.614795995    -10.123493895    -31.324286570
H    0.802752239    -11.052947905    -31.235795979
H    -0.163305274    -10.087602000    -31.891888917
