10
-1708.39968
S    -9.447584308    1.511891226    -26.757198643
O    -8.999101585    0.885146477    -27.980951725
O    -10.615378368    2.333255529    -26.683239423
O    -9.626482177    0.355090243    -25.609684767
O    -8.149223163    2.297050809    -26.183913775
H    -10.246798795    0.551031969    -24.888551571
H    -7.285119987    2.031133147    -26.629955778
O    -6.331264547    1.232229969    -27.835391672
H    -5.952397186    1.767722901    -28.528576321
H    -7.106646409    0.790512752    -28.235242659
