10
-1708.27338
S    -7.904621278    8.313800782    -8.549731871
O    -7.641580626    7.712746653    -9.822436801
O    -8.518605581    9.602784577    -8.412302351
O    -8.819595399    7.290833778    -7.641938898
O    -6.528335473    8.288574168    -7.691015604
H    -9.457735959    7.712926800    -7.045230033
H    -5.797751604    7.691695205    -7.997851247
O    -4.425396563    6.835462765    -8.491588374
H    -3.724206392    6.944269799    -7.846368086
H    -4.075347912    7.158513437    -9.325444561
