10
-1708.23605
S    -7.138004265    -9.059846736    -26.441478460
O    -6.163474694    -10.021582243    -26.841905067
O    -8.546829522    -9.221426705    -26.678982728
O    -6.971795810    -8.738746398    -24.848778556
O    -6.675202586    -7.617458501    -27.052455741
H    -7.760362959    -8.429974192    -24.369363699
H    -5.792359075    -7.552126550    -27.451097446
O    -11.031117203    -8.261053675    -27.089284246
H    -10.110497405    -8.481740029    -26.944048775
H    -11.434514583    -9.083883739    -27.342864332
