10
-1708.22435
S    -4.097121704    -0.762983393    -15.735365003
O    -3.393881856    -0.714563749    -16.988826178
O    -4.927251404    0.299180974    -15.268538078
O    -4.989788845    -2.129318985    -15.678563068
O    -2.974365167    -1.128082498    -14.605515895
H    -5.838167625    -2.088437584    -15.204564745
H    -2.109321326    -1.437648964    -14.927228609
O    -3.613669686    -0.105115949    -19.606000299
H    -3.423972656    0.821527531    -19.513680577
H    -3.531303917    -0.459584546    -18.719710041
