10
-1708.33586
S    -5.560762797    -12.299273943    -20.781121605
O    -4.148876241    -12.105503943    -20.895565412
O    -6.504454727    -11.743190678    -21.698577630
O    -5.919337843    -13.856981249    -20.514775443
O    -5.987400220    -11.760565359    -19.258188944
H    -6.748969974    -14.000466680    -19.967198374
H    -5.274909987    -11.420216063    -18.701469602
O    -8.086236110    -13.585363626    -18.968039800
H    -7.677059339    -12.851264383    -18.485078669
H    -8.792356971    -13.179103979    -19.481417603
