10
-1708.40355
S    -8.363894964    -5.765158319    -29.217527003
O    -8.209877893    -7.188729736    -29.013589817
O    -8.259438239    -5.154096998    -30.506710977
O    -9.812776781    -5.293647619    -28.613489387
O    -7.346971272    -5.077034324    -28.160241640
H    -10.284147700    -4.606702319    -29.114275565
H    -6.911485704    -5.733638407    -27.528173767
O    -6.509353790    -7.298335419    -26.927333025
H    -5.660541854    -7.649131725    -27.190056191
H    -7.164755677    -7.749669691    -27.495489653
