10
-1708.41675
S    -7.794031988    -5.889022363    -25.195258549
O    -8.923593418    -6.086341079    -26.047634239
O    -6.668081475    -5.051219049    -25.537072970
O    -8.249729949    -5.415998077    -23.713120976
O    -7.211159860    -7.384330288    -24.841172926
H    -7.556119909    -4.857041130    -23.239108463
H    -7.802846737    -8.135139290    -25.003861036
O    -6.015270376    -4.076636396    -23.104095533
H    -5.885649628    -3.973210874    -24.067605209
H    -5.323465081    -4.683975412    -22.833359736
