10
-1708.27851
S    -3.966088626    -10.314298018    -38.296380739
O    -4.552339377    -11.499884014    -37.745325957
O    -4.565836243    -9.562518248    -39.356854478
O    -3.579631161    -9.298187159    -37.093237909
O    -2.440464832    -10.729662941    -38.771152738
H    -3.145818313    -8.444603651    -37.335538517
H    -2.095250199    -11.568263385    -38.433962920
O    -2.371191051    -7.008650951    -37.805048373
H    -1.871087959    -6.970149758    -38.620638122
H    -2.845028282    -6.181621900    -37.730626142
