10
-1708.26724
S    -13.893146260    -2.437305669    -25.135394975
O    -13.961666974    -3.543228431    -26.034195222
O    -14.057520195    -1.067704420    -25.549569846
O    -14.905587905    -2.661990523    -23.876959807
O    -12.462345911    -2.547964468    -24.348107690
H    -15.177446422    -1.856347202    -23.389631491
H    -11.913229410    -3.331180220    -24.506188707
O    -14.475230183    1.026838988    -23.912282552
H    -13.704126458    1.581082321    -23.955093618
H    -14.361464214    0.380228536    -24.613446447
