10
-1708.22439
S    -0.648713230    -3.893703347    -32.999209402
O    -0.712974410    -4.806519516    -34.109854270
O    -0.822982250    -2.484819381    -33.139773036
O    -1.689550752    -4.388836970    -31.842486887
O    0.766905765    -4.211610361    -32.247324968
H    -2.182813762    -3.700721847    -31.362414513
H    1.233572701    -5.022846639    -32.514617256
O    -2.384732010    -5.562256990    -36.084293755
H    -1.828235769    -5.401771847    -35.320841477
H    -1.919708414    -5.162361417    -36.809597125
