10
-1708.32715
S    -1.475035200    -9.529335554    -33.739792856
O    -0.734382669    -10.505580859    -34.473953529
O    -2.086452062    -8.391289256    -34.353800970
O    -2.696173125    -10.338330782    -32.937788094
O    -0.647306014    -9.104031638    -32.413546553
H    -3.582979424    -9.959236378    -33.001693408
H    -0.658377255    -9.780367134    -31.673970198
O    -1.079837309    -11.169638734    -30.766071888
H    -0.554170682    -11.955958388    -30.924917642
H    -1.943162664    -11.344590701    -31.168752620
