10
-1708.39008
S    -7.005069962    -11.529980218    -27.922175730
O    -5.942173846    -12.333215530    -28.441833757
O    -8.134299662    -11.109487505    -28.723327599
O    -7.658005881    -12.198844270    -26.598699320
O    -6.290114661    -10.201679247    -27.280958062
H    -8.647054327    -12.028090449    -26.497372851
H    -5.319002541    -10.213271788    -27.238282790
O    -10.196338158    -11.465270784    -27.036871367
H    -9.793404762    -11.074503291    -27.838979514
H    -10.849014148    -12.085995126    -27.353624443
