10
-1708.39962
S    -10.383079190    6.535144642    -5.505157325
O    -10.431064759    5.395848828    -4.644694884
O    -9.924507364    6.485842162    -6.875472508
O    -11.812512789    7.297135392    -5.560520454
O    -9.490591645    7.668885478    -4.721276248
H    -12.004644884    7.738282303    -6.448307230
H    -9.364732806    7.544831285    -3.767542403
O    -11.623352397    8.195947783    -8.074462683
H    -11.202603443    9.048266266    -8.179890601
H    -10.897467530    7.542260425    -8.130544864
