10
-1708.28310
S    -12.427039546    -7.145461402    -28.439317066
O    -11.080289390    -7.394858934    -28.839369359
O    -13.404177714    -6.511402041    -29.278986739
O    -13.109250779    -8.530379755    -27.902683250
O    -12.365381126    -6.316974532    -27.029638894
H    -14.081960681    -8.558639441    -27.867367832
H    -11.505790864    -6.237872023    -26.586211412
O    -15.835936225    -4.890477237    -28.971577215
H    -15.066734196    -5.468993501    -28.972847445
H    -15.704733519    -4.323679370    -29.725875097
