10
-1708.27167
S    0.225956331    3.579147795    -24.854867130
O    -0.164259480    2.256781207    -25.221248149
O    0.801602834    4.520942085    -25.775903902
O    -1.026632682    4.356815392    -24.149538489
O    1.225627010    3.436825140    -23.567393496
H    -1.126731361    5.303457802    -24.352383691
H    1.400337350    2.537167936    -23.240990495
O    3.415589399    4.418741385    -27.079974972
H    3.807505033    5.186466209    -26.676058074
H    2.492875827    4.446115758    -26.802368182
