10
-1708.40850
S    0.301602171    1.896265050    -32.506335029
O    1.544124513    1.946549977    -33.212381216
O    -0.881653023    2.598240520    -32.951378813
O    -0.173856319    0.362470717    -32.286589832
O    0.635190241    2.340000911    -30.964500266
H    -1.164327876    0.219559513    -32.419528391
H    1.570372463    2.307579544    -30.701030336
O    -2.761872259    0.671505301    -32.886391049
H    -2.995656031    0.464731147    -33.791012919
H    -2.561513954    1.628854831    -32.889447101
