10
-1708.27676
S    -4.392934569    3.696203477    1.697548080
O    -3.035666757    3.627272852    1.259584638
O    -5.387125175    4.483973878    1.027548439
O    -5.010610922    2.186366456    1.815636327
O    -4.360557623    4.089192593    3.285558305
H    -5.974015411    2.093121580    1.711918510
H    -3.500738003    4.005265768    3.733664578
O    -6.118598398    4.826826635    -1.797088426
H    -6.097563708    4.918503781    -0.837054770
H    -5.255342199    4.495711866    -2.024746276
