10
-1708.29252
S    1.577978642    4.511024934    -15.797943487
O    2.670810268    5.030831671    -15.030438506
O    1.430212065    4.733360224    -17.205484822
O    1.454069571    2.914384386    -15.530892575
O    0.208603299    5.015393699    -15.036523405
H    0.831055625    2.402957279    -16.111622717
H    0.309008472    5.289639400    -14.112245196
O    -0.116532296    1.495829302    -17.171978860
H    0.097099724    0.567059933    -17.062432763
H    0.109605965    1.716874438    -18.081770383
