10
-1708.39972
S    -10.115329758    -14.359029366    -18.579818023
O    -9.488673616    -14.855327312    -19.784589689
O    -11.488229026    -13.969157094    -18.509554767
O    -9.879370431    -15.464907409    -17.393260049
O    -9.148931394    -13.164216974    -18.058572205
H    -10.498548296    -15.453121875    -16.647379477
H    -8.230840523    -13.179370686    -18.473805114
O    -7.033523363    -13.759941654    -19.587082424
H    -7.615152516    -14.456636756    -19.949216283
H    -6.803023945    -13.209412470    -20.332510549
