10
-1708.36519
S    -10.083899635    -9.855222469    -27.821877144
O    -8.760345403    -9.666606472    -28.311658902
O    -11.263122411    -9.613679510    -28.636261086
O    -10.228370775    -11.381624689    -27.249020942
O    -10.355028270    -8.988099477    -26.475851653
H    -11.127054415    -11.731897253    -27.148338554
H    -11.221830098    -8.474683347    -26.485370973
O    -12.707779577    -7.904908753    -27.150440621
H    -12.684513649    -7.018791109    -27.509257359
H    -12.638666981    -8.500719002    -27.923985192
