10
-1708.36713
S    -8.636818422    6.280358216    0.888530605
O    -9.273064590    5.652443309    -0.258873095
O    -7.386980878    6.955780822    0.796708818
O    -9.783296870    7.243540860    1.509827776
O    -8.537213031    5.105935644    2.025722803
H    -10.657743847    7.215125884    1.007797611
H    -8.987991228    4.269125217    1.826566928
O    -11.724276928    6.752694892    -0.265880370
H    -11.799983574    7.391510755    -0.974464109
H    -11.098925818    6.075761851    -0.595366753
