10
-1708.28237
S    0.692913082    3.441799202    -27.013834522
O    0.947002853    2.383194843    -27.950584067
O    0.523533564    4.807855769    -27.387727155
O    -0.610189896    3.029924961    -26.114183893
O    1.857149209    3.322128514    -25.870661750
H    -1.199190165    3.747332514    -25.826319508
H    2.396423070    2.512579024    -25.874718266
O    -0.322740571    1.428262792    -30.502007931
H    0.093975908    1.794093142    -29.714048408
H    -0.228783265    0.486244522    -30.409071835
