10
-1708.29577
S    1.167164788    2.168402297    -15.412795404
O    1.748483081    1.224156459    -14.515774665
O    1.882782325    3.307983475    -15.902088996
O    0.656118590    1.341927700    -16.773875216
O    -0.313330993    2.595402831    -14.906850957
H    0.973249503    1.676180931    -17.622077454
H    -1.026536886    1.914586048    -15.066212392
O    -1.838753687    0.560041012    -15.747009829
H    -1.191474085    0.316018240    -16.422209024
H    -2.686396646    0.602075963    -16.183518165
