10
-1708.31603
S    -2.631546209    -6.636454452    -31.486914156
O    -1.483781596    -7.228225529    -32.099834752
O    -3.442715448    -5.660890841    -32.141811778
O    -3.569382225    -7.754875819    -30.786794684
O    -2.094014599    -5.943943729    -30.059139207
H    -3.989857586    -7.474007275    -29.917775253
H    -1.140112754    -5.896628192    -29.922295856
O    -4.282808695    -6.470981082    -28.549203743
H    -3.389506753    -6.090734583    -28.563418055
H    -4.868689665    -5.735882563    -28.749595635
