10
-1708.32551
S    -1.074630663    -0.210954410    -15.314894303
O    0.332634479    -0.008967972    -15.160281543
O    -1.639091370    -1.157441487    -16.225780975
O    -1.789577293    -0.371173185    -13.868499054
O    -1.730236373    1.270387448    -15.693982477
H    -2.763129524    -0.141039030    -13.850976496
H    -1.134056474    2.030518128    -15.662694560
O    -4.302365174    0.430841888    -14.327378487
H    -4.048480581    1.083805623    -14.993719376
H    -4.828622880    -0.223745239    -14.795072502
