10
-1708.40495
S    -3.610608365    5.207740720    -7.240756596
O    -2.814063718    6.387411862    -7.119520787
O    -4.374509104    4.884205076    -8.424820304
O    -2.743753426    3.876211014    -6.915337150
O    -4.622720582    5.199132836    -5.949050113
H    -2.955166509    3.093019122    -7.515182864
H    -4.319365311    5.676071355    -5.159298948
O    -3.766675307    2.288464729    -8.811287860
H    -4.518236261    1.745821649    -8.575715280
H    -4.152422514    3.119823952    -9.154220993
