10
-1708.22607
S    -0.035966123    -8.047497374    -32.665310972
O    0.449518594    -9.398268888    -32.573796721
O    -0.096575248    -7.319761461    -33.890921863
O    -1.532248495    -8.000380118    -32.008795890
O    0.780192631    -7.188231259    -31.542596684
H    -2.202658436    -7.452952187    -32.449484838
H    1.197104039    -7.691603709    -30.819580958
O    0.338373758    -11.692317903    -31.165662075
H    0.373854336    -10.838462635    -31.597790894
H    0.216188761    -12.313118027    -31.875033181
