10
-1708.23269
S    -6.227125646    2.714858871    -26.688161564
O    -6.745194938    2.918573054    -28.002722835
O    -5.450806577    3.718913073    -26.010253462
O    -7.455749142    2.317712310    -25.673272943
O    -5.382007036    1.325456825    -26.624479343
H    -7.321106080    2.549594271    -24.740166178
H    -4.465791529    1.346790200    -26.988039582
O    -2.887033055    1.550617916    -27.580985204
H    -2.383187041    2.262684660    -27.181867023
H    -2.318746151    0.781443436    -27.584913259
