10
-1708.39862
S    -2.421154785    -6.841414936    -36.449546756
O    -1.474422748    -7.727410424    -37.089913564
O    -2.715937112    -5.527984125    -36.930283675
O    -3.858121147    -7.619756678    -36.327161468
O    -1.969953589    -6.802070772    -34.891788472
H    -4.653666481    -7.064951270    -36.289470736
H    -1.328867954    -7.539667520    -34.638512827
O    -0.244025815    -8.845832371    -34.970862096
H    -0.476938223    -8.859396562    -35.921392616
H    0.686260818    -8.627228470    -34.944101778
