10
-1708.31629
S    -7.542539214    -9.607656274    -20.078938415
O    -6.571976108    -9.764460806    -21.114243334
O    -8.757831034    -8.875310807    -20.255343678
O    -7.991570972    -11.144485734    -19.590126018
O    -6.810456446    -9.198461192    -18.692934540
H    -8.939353304    -11.317094679    -19.517341093
H    -6.385739210    -9.961964712    -18.199375558
O    -5.972908548    -11.585802209    -17.819462831
H    -5.155655398    -11.916802112    -18.196097605
H    -6.685833148    -11.992606030    -18.334362651
