10
-1708.22081
S    -11.094993800    6.815950045    -5.133831632
O    -10.909367680    5.772873154    -6.089468906
O    -12.176833653    7.761163534    -5.205844027
O    -11.144816632    6.187925544    -3.626833495
O    -9.685128976    7.635265054    -5.044229989
H    -11.708664914    6.642922572    -2.976217768
H    -8.918979313    7.261219646    -5.511818372
O    -13.050335665    9.885454673    -6.617044253
H    -12.710093366    9.218531713    -6.019501421
H    -13.546572511    9.397886699    -7.264171942
