10
-1708.28245
S    -8.387574126    -13.672394903    -19.590641106
O    -8.482662723    -15.052410589    -19.939493883
O    -7.899153126    -12.656374355    -20.480548902
O    -9.830506146    -13.130568061    -19.043992947
O    -7.525015980    -13.598033082    -18.201468329
H    -10.040467874    -12.195830059    -19.216484034
H    -7.270089959    -14.442659519    -17.792674335
O    -5.246679778    -12.048735892    -21.666384426
H    -6.154541557    -12.277489581    -21.433925106
H    -5.066700700    -11.257059122    -21.169806446
