10
-1708.28691
S    -4.223345715    2.865914237    -18.102749599
O    -3.437543661    2.067899780    -19.002014210
O    -4.024906108    4.266864366    -17.915753671
O    -5.802767138    2.654346928    -18.471018277
O    -4.182348847    2.101987073    -16.658220195
H    -6.377939813    3.437151059    -18.433093722
H    -3.932377944    1.162240204    -16.663424583
O    -3.485480245    1.721392459    -21.969325166
H    -3.600255881    1.733881206    -21.012739400
H    -2.548396054    1.830999320    -22.098458438
