10
-1708.23464
S    -1.530847387    -0.361714975    0.494718560
O    -0.667664845    -1.272672894    -0.183821764
O    -2.296244529    0.649745082    -0.182399278
O    -2.587341118    -1.188526566    1.426537031
O    -0.650538101    0.354708392    1.669825133
H    -3.418653681    -0.738726089    1.660049268
H    0.249870708    0.027812823    1.827958101
O    -3.854200103    2.843343373    -0.044701952
H    -3.215233317    2.129559478    -0.034981352
H    -4.317609177    2.741920898    -0.868360001
