10
-1708.21597
S    -0.643476791    1.201308315    -13.206276279
O    -0.620145029    0.080119549    -14.106010473
O    -1.036759296    2.510529667    -13.615824604
O    -1.546328770    0.820460339    -11.899841721
O    0.833626353    1.249263309    -12.510117111
H    -2.071610143    1.533784395    -11.497245980
H    1.417405714    0.484943152    -12.662590823
O    -2.041799817    -1.354366724    -15.892333373
H    -1.513783850    -0.957647769    -15.197848868
H    -2.165030439    -0.662633401    -16.531217500
