10
-1708.39536
S    -7.211334204    1.252636595    -24.324335056
O    -5.837052416    1.377616475    -23.948450122
O    -7.805238596    2.026603570    -25.392337509
O    -7.585993215    -0.287147417    -24.662190489
O    -8.074769481    1.492714269    -22.952390202
H    -8.242766972    -0.395250035    -25.418714749
H    -7.567041731    1.502556371    -22.122867607
O    -9.231544639    0.177660288    -26.724418365
H    -9.030878162    1.109386490    -26.503942397
H    -8.944082480    0.063053618    -27.628339018
