10
-1708.28642
S    0.405198668    -9.481509949    -33.050343280
O    1.772361996    -9.079743198    -32.996001711
O    -0.690401835    -8.658846857    -32.624859464
O    0.046731859    -9.987696878    -34.563705269
O    0.285296874    -10.911953417    -32.259159112
H    -0.873483991    -9.887182841    -34.861469268
H    1.104004274    -11.415285366    -32.120417264
O    -2.826909623    -9.067158103    -30.665878732
H    -2.323942672    -8.629978035    -31.364162004
H    -2.388211626    -9.908493140    -30.568187443
