10
-1708.25742
S    -0.289257738    -8.089828999    -33.697372188
O    0.151171881    -8.560619021    -34.978030282
O    -0.903491996    -6.814098821    -33.501087594
O    -1.226338157    -9.228967493    -33.018500101
O    1.018499410    -8.213077080    -32.701895395
H    -1.948438128    -8.955864215    -32.398801558
H    1.730275648    -8.795210602    -33.008306432
O    -3.241146861    -8.835691684    -31.298016049
H    -3.868765766    -9.509704555    -31.575441204
H    -2.944059945    -9.105182976    -30.424313877
