10
-1708.32059
S    -6.998287746    -8.573705719    -25.742175147
O    -6.154110390    -7.760711254    -24.922756124
O    -6.554451800    -9.174491444    -26.958719243
O    -7.805978252    -9.662401640    -24.856248350
O    -8.329739129    -7.627489041    -26.112137213
H    -8.761299939    -9.806101042    -25.132843507
H    -8.319867102    -6.718483060    -25.784944012
O    -10.230330149    -9.571770880    -25.981954587
H    -10.071696683    -8.642635172    -26.210502192
H    -10.270075598    -10.037574683    -26.820676556
