10
-1708.41524
S    -2.167620807    2.256631612    -10.786846967
O    -1.977858381    1.828653540    -9.436230005
O    -1.264674821    1.913340362    -11.861880979
O    -3.642704022    1.864947236    -11.330883335
O    -2.306610397    3.891546110    -10.727131063
H    -3.652503470    1.566671151    -12.296137829
H    -2.485412734    4.276427831    -9.853323546
O    -2.966453434    1.209800543    -13.834049475
H    -2.996039652    1.937626153    -14.456132885
H    -2.044004020    1.192730129    -13.510991975
