10
-1708.39241
S    -7.637798229    2.413349361    -27.029720616
O    -7.748107127    2.285954471    -28.466047782
O    -7.235792430    3.626992606    -26.389417732
O    -9.068299065    2.000076992    -26.344714724
O    -6.706720184    1.170213885    -26.564065308
H    -9.291269047    2.457094038    -25.515680453
H    -6.275904488    0.675478846    -27.328877077
O    -5.917139549    0.387312704    -28.999023902
H    -6.224705007    -0.407766283    -29.427235995
H    -6.504576766    1.103548349    -29.312288636
