10
-1708.39419
S    -5.805133495    -12.231930450    -19.990715056
O    -5.090562936    -12.701165159    -21.157151995
O    -6.904163387    -12.946207659    -19.419261472
O    -4.735380813    -12.002001887    -18.770230599
O    -6.211989566    -10.700389259    -20.332311261
H    -5.059792354    -12.184777635    -17.872853138
H    -6.022432326    -10.432158606    -21.284350196
O    -5.490709028    -10.700271477    -22.911502304
H    -5.208102647    -11.619084213    -22.733582488
H    -4.722363950    -10.253547015    -23.259195200
