10
-1708.29428
S    -6.049907471    0.822322024    -23.432423034
O    -5.847193122    -0.420493575    -22.760938951
O    -6.655753102    0.932170817    -24.727960266
O    -6.856721080    1.857477363    -22.457929379
O    -4.601986899    1.583374774    -23.483103905
H    -7.451323279    2.496345094    -22.889230435
H    -3.880396709    1.225593445    -22.942076467
O    -7.553409558    2.099434092    -27.338431645
H    -6.732605925    2.062756577    -27.818376990
H    -7.354567957    1.695843846    -26.485810843
