10
-1708.33815
S    -1.766389528    -4.869054961    -34.062787086
O    -2.787240034    -4.302189595    -34.898182377
O    -1.076698415    -4.140479452    -33.042036413
O    -2.407356654    -6.199785216    -33.333332087
O    -0.702769229    -5.599013206    -35.043166341
H    -2.071532774    -6.418954297    -32.452285506
H    -1.077699842    -5.959648920    -35.897082880
O    -2.009462540    -6.421324164    -37.230710311
H    -2.155881901    -5.653974291    -37.793919822
H    -2.883281763    -6.651823302    -36.893289655
