10
-1708.22571
S    -2.510286979    -5.415891915    -33.535812948
O    -2.182260486    -6.546960286    -34.362117336
O    -3.270993047    -4.304527497    -34.006556136
O    -3.239764014    -5.950793572    -32.175796702
O    -1.094566439    -4.904509133    -32.901706492
H    -4.033695295    -5.475079946    -31.876531548
H    -0.342993296    -5.521804718    -32.955005862
O    -3.247295437    -8.605077608    -35.737143663
H    -2.851388798    -7.961223027    -35.147401711
H    -3.089238758    -8.260620495    -36.608540844
