10
-1708.29809
S    -0.047798393    -2.231834859    -34.654618553
O    0.443641817    -1.998311362    -35.978872608
O    0.109135640    -1.297227372    -33.580829345
O    -1.669452515    -2.534812431    -34.774623784
O    0.427460455    -3.704203039    -34.174541527
H    -2.233746357    -2.155420932    -34.086668593
H    0.203132853    -4.468602233    -34.768737686
O    -0.241624631    -5.624001645    -35.920384869
H    0.409389512    -5.717052076    -36.620434223
H    -1.066065538    -5.390748625    -36.357037503
