14
-1400.27912697
S  -1.962421  -0.115921  -0.065349
O  -1.123855  0.490365  -1.100665
O  -2.190824  -1.528539  -0.066819
O  -1.460894  0.409750  1.335958
O  -3.390105  0.577709  -0.111395
H  -0.468562  0.464889  1.340033
H  -3.296310  1.539463  -0.184107
S  2.078251  0.096711  0.081336
O  3.487251  0.357003  0.105684
O  1.198368  0.596918  1.124471
O  1.539231  0.544009  -1.327416
O  1.805014  -1.482671  0.089682
H  0.545993  0.521085  -1.334963
H  2.452121  -1.934425  -0.472756
