14
-1400.28257524
S  -1.937417  0.017113  -0.100030
O  -1.043342  0.146963  -1.250924
O  -3.354211  0.045861  -0.267118
O  -1.573500  -1.330678  0.652144
O  -1.555157  1.149863  0.942293
H  -0.605466  -1.491339  0.640646
H  -0.585836  1.305901  0.950231
S  1.763449  -0.026703  0.077542
O  1.262907  1.165775  0.745292
O  1.260950  -1.313028  0.506837
O  1.617944  0.140598  -1.481683
O  3.336238  -0.086003  0.193422
H  0.644506  0.180800  -1.668358
H  3.715646  0.803275  0.115185
