14
-1400.27702576
S  -2.071140  -0.135217  0.008738
O  -2.586843  -1.289499  0.678745
O  -1.112802  -0.290299  -1.087615
O  -3.321481  0.676476  -0.537618
O  -1.487915  0.934176  1.014137
H  -3.027408  1.428310  -1.073776
H  -0.512331  0.788385  1.124853
S  2.053270  0.118503  0.001525
O  1.122806  0.353435  1.094903
O  2.579081  1.228736  -0.751297
O  3.259342  -0.703680  0.632063
O  1.457305  -0.984391  -0.951457
H  4.065563  -0.522177  0.126524
H  0.484166  -0.826702  -1.076692
