14
-1400.27912713
S  -1.962721  0.116021  0.065176
O  -1.123293  -0.488017  1.101151
O  -2.193593  1.528254  0.065507
O  -1.459951  -0.409756  -1.335545
O  -3.389315  -0.579771  0.111796
H  -0.467692  -0.467663  -1.338149
H  -3.294112  -1.541403  0.184250
S  2.078411  -0.096753  -0.081163
O  3.487524  -0.356607  -0.105093
O  1.198798  -0.598791  -1.123721
O  1.539395  -0.542287  1.328156
O  1.804584  1.482416  -0.091767
H  0.546160  -0.518092  1.335753
H  2.451413  1.935329  0.470070
