14
-1400.26847027
S  2.236170  0.113418  -0.126533
O  1.971862  1.512548  0.040972
O  2.681757  -0.484003  -1.356401
O  3.243168  -0.289875  1.051608
O  0.920480  -0.724491  0.281322
H  3.629883  -1.157884  0.861993
H  0.384272  -0.267562  0.968300
S  -2.275956  -0.043946  0.131702
O  -1.430898  0.042459  1.305405
O  -3.673213  -0.357375  0.205486
O  -2.076484  1.361340  -0.607903
O  -1.631929  -1.071423  -0.898014
H  -2.758662  1.474492  -1.286857
H  -0.656871  -1.074038  -0.805933
