14
-1400.27912708
S  -2.077732  -0.096542  0.081358
O  -1.198696  -0.596493  1.125394
O  -3.487044  -0.355239  0.105650
O  -1.802820  1.482524  0.088040
O  -1.538780  -0.546075  -1.326592
H  -2.449348  1.934335  -0.475033
H  -0.545476  -0.524102  -1.333940
S  1.961680  0.115717  -0.065486
O  1.124021  -0.493879  -1.099663
O  2.188804  1.528540  -0.070293
O  1.460300  -0.406881  1.336819
O  3.390035  -0.576718  -0.109792
H  0.468075  -0.464682  1.340702
H  3.297016  -1.538575  -0.182194
