14
-1400.27549219
S  -2.033952  0.113497  0.060950
O  -2.338580  1.511057  0.064186
O  -1.160530  -0.449832  1.091590
O  -3.420957  -0.658713  0.106791
O  -1.505238  -0.381097  -1.343604
H  -3.274134  -1.612691  0.190882
H  -0.512351  -0.374207  -1.345988
S  2.034136  0.113290  -0.061405
O  1.159602  -0.453458  -1.089162
O  2.341325  1.510245  -0.070826
O  1.504535  -0.373942  1.345310
O  3.419908  -0.661391  -0.104172
H  0.511548  -0.369237  1.346339
H  3.271464  -1.615412  -0.184855
