14
-1400.28156471
S  -2.067003  -0.086224  0.095745
O  -3.453860  -0.440840  0.174877
O  -1.142045  -0.409525  1.168581
O  -1.514220  -0.639233  -1.267506
O  -1.920518  1.502498  -0.064790
H  -0.523911  -0.563130  -1.298768
H  -2.637380  1.838630  -0.623517
S  2.067019  -0.086137  -0.095780
O  1.142088  -0.409377  -1.168733
O  3.454012  -0.440105  -0.175269
O  1.919692  1.502445  0.065482
O  1.514775  -0.640024  1.267352
H  2.637003  1.838818  0.623489
H  0.524650  -0.563245  1.299402
