14
-1400.26663584
S  -2.113109  -0.041579  0.122604
O  -1.685045  -0.141417  1.485799
O  -3.479359  0.071402  -0.300840
O  -1.312994  1.269995  -0.463651
O  -1.467596  -1.200226  -0.749126
H  -1.768960  1.585358  -1.258704
H  -0.536001  -1.356815  -0.480474
S  2.113051  0.041458  0.122711
O  1.683735  0.140012  1.485627
O  3.479699  -0.070675  -0.299629
O  1.313705  -1.269733  -0.465205
O  1.467910  1.200674  -0.748546
H  1.769344  -1.583668  -1.261006
H  0.536092  1.356802  -0.480279
