14
-1400.27450369
S  2.151635  -0.066796  -0.077843
O  3.439858  0.370352  0.377372
O  1.912764  -0.692597  -1.346330
O  1.504413  -0.889085  1.102920
O  1.158872  1.251407  -0.116189
H  0.581270  -1.146490  0.862737
H  1.367807  1.843944  0.621235
S  -2.048430  -0.140067  -0.043044
O  -3.350107  -0.482071  -0.535223
O  -1.074642  -1.150855  0.316025
O  -1.413472  0.872823  -1.074797
O  -2.192288  0.756109  1.284354
H  -0.471864  1.052464  -0.849582
H  -3.011675  1.271232  1.234749
