14
-1400.27450371
S  2.048432  -0.140333  0.041971
O  1.074310  -1.148991  -0.322254
O  3.351132  -0.485106  0.529550
O  2.189720  0.765162  -1.279307
O  1.414809  0.864981  1.081994
H  3.010197  1.278442  -1.228619
H  0.472995  1.046052  0.859298
S  -2.151514  -0.067306  0.077348
O  -1.912970  -0.702434  1.341245
O  -3.439692  0.373151  -0.374979
O  -1.158789  1.250565  0.125387
O  -1.504121  -0.880993  -1.109321
H  -1.367648  1.848238  -0.607909
H  -0.581428  -1.141189  -0.870396
