14
-1400.28156458
S  2.066504  -0.086022  -0.095836
O  1.142230  -0.411946  -1.168478
O  3.454385  -0.436503  -0.175434
O  1.915222  1.502240  0.065160
O  1.515871  -0.640960  1.267589
H  2.631261  1.840463  0.623677
H  0.525619  -0.565944  1.299844
S  -2.066324  -0.086086  0.095902
O  -3.453605  -0.438780  0.176152
O  -1.141142  -0.409734  1.168437
O  -1.515159  -0.641066  -1.267296
O  -1.917765  1.502307  -0.066199
H  -0.525060  -0.564277  -1.299944
H  -2.635014  1.839016  -0.624079
