14
-1400.28156476
S  -2.066858  -0.086116  0.095850
O  -1.141815  -0.408476  1.168932
O  -3.453808  -0.440270  0.175741
O  -1.919922  1.502414  -0.066654
O  -1.514590  -0.640821  -1.266890
H  -2.637162  1.838211  -0.625083
H  -0.524396  -0.564151  -1.298890
S  2.066935  -0.086157  -0.095794
O  3.454070  -0.439617  -0.175395
O  1.142049  -0.409959  -1.168606
O  1.514952  -0.639876  1.267527
O  1.919046  1.502383  0.065288
H  0.524789  -0.563050  1.299619
H  2.635688  1.839122  0.623923
