14
-1400.27367436
S  -2.127470  -0.083373  0.075818
O  -1.857797  -0.855614  1.255916
O  -3.428895  0.394078  -0.292271
O  -1.135455  1.219481  0.253005
O  -1.507538  -0.759002  -1.208155
H  -1.333319  1.890209  -0.417975
H  -0.576479  -1.036351  -1.023314
S  1.947907  0.027349  -0.132529
O  2.242414  1.045246  -1.097758
O  1.087302  -1.094722  -0.493702
O  3.325378  -0.547461  0.397591
O  1.415054  0.654011  1.225833
H  3.175068  -1.346072  0.926533
H  0.484036  0.940453  1.098447
