14
-1400.27450344
S  -2.152060  0.067293  -0.077951
O  -3.442179  -0.369582  0.372382
O  -1.909028  0.697247  -1.343622
O  -1.506564  0.884393  1.107316
O  -1.161025  -1.252374  -0.118280
H  -0.582641  1.141833  0.869944
H  -1.372587  -1.846617  0.617043
S  2.048585  0.140311  -0.042475
O  1.073813  1.146541  0.326963
O  3.346853  0.488578  -0.539424
O  2.201769  -0.762380  1.279334
O  1.411103  -0.868686  -1.076475
H  3.022081  -1.275315  1.222671
H  0.470802  -1.051471  -0.848396
