14
-1400.26847026
S  2.236596  -0.113315  0.126604
O  2.683470  0.485051  1.355538
O  1.972268  -1.512577  -0.039607
O  0.920361  0.724140  -0.280519
O  3.242270  0.289214  -1.052946
H  0.383987  0.267042  -0.967296
H  3.629753  1.156995  -0.863867
S  -2.276214  0.043969  -0.131731
O  -3.673223  0.358191  -0.206378
O  -1.430515  -0.042849  -1.304957
O  -1.632157  1.070968  0.898499
O  -2.077891  -1.361473  0.607812
H  -0.657110  1.073832  0.806057
H  -2.759408  -1.473660  1.287587
