14
-1400.26847025
S  -2.276494  0.044037  -0.131776
O  -1.430256  -0.044090  -1.304471
O  -3.673143  0.359707  -0.207307
O  -2.080308  -1.361344  0.608527
O  -1.632019  1.070742  0.898369
H  -2.764432  -1.473692  1.285644
H  -0.656914  1.072920  0.806736
S  2.237106  -0.113445  0.126550
O  2.683794  0.484129  1.355925
O  1.973012  -1.512618  -0.040644
O  0.920815  0.724118  -0.280004
O  3.242769  0.290076  -1.052690
H  0.384557  0.267489  -0.967119
H  3.629674  1.158046  -0.863291
