14
-1400.27912698
S  -2.078650  -0.096585  0.081417
O  -1.198791  -0.594098  1.125915
O  -3.487409  -0.358042  0.105779
O  -1.806610  1.482975  0.086893
O  -1.538619  -0.546120  -1.326243
H  -2.454146  1.933296  -0.476186
H  -0.545383  -0.521674  -1.333449
S  1.963036  0.115786  -0.065579
O  2.194153  1.527933  -0.071543
O  1.124212  -0.492492  -1.099603
O  3.389575  -0.580563  -0.108631
O  1.459507  -0.403967  1.337075
H  3.294005  -1.542194  -0.180556
H  0.467213  -0.461644  1.339654
