14
-1400.27517036
S  -2.012277  0.010010  -0.132247
O  -1.103835  -0.339733  -1.207973
O  -3.400587  0.274331  -0.375005
O  -1.860717  -1.182363  0.917499
O  -1.439543  1.261666  0.649630
H  -2.569049  -1.132683  1.577043
H  -0.456183  1.281017  0.621760
S  2.058543  -0.118181  0.090594
O  3.474222  0.102777  0.031989
O  1.408784  -0.936660  1.075474
O  1.319174  1.340258  0.286735
O  1.591503  -0.499228  -1.366896
H  1.764571  2.017994  -0.243349
H  0.608391  -0.603974  -1.380633
