14
-1400.27549242
S  -2.034137  0.113343  0.061193
O  -2.341152  1.510317  0.068956
O  -1.160223  -0.452200  1.090273
O  -3.419974  -0.661154  0.104288
O  -1.503897  -0.375425  -1.344711
H  -3.271679  -1.615086  0.186223
H  -0.510815  -0.371625  -1.345221
S  2.034160  0.113232  -0.061380
O  2.341447  1.510163  -0.071658
O  1.160210  -0.454027  -1.089508
O  3.419863  -0.661637  -0.103042
O  1.503740  -0.372775  1.345368
H  3.271346  -1.615653  -0.183623
H  0.510665  -0.368942  1.345898
