14
-1400.27912721
S  1.962181  -0.115874  0.065404
O  1.123115  0.491000  1.100010
O  2.192342  -1.528193  0.068879
O  1.459700  0.407016  -1.336486
O  3.389212  0.579309  0.110475
H  0.467503  0.465793  -1.339137
H  3.294434  1.541051  0.182009
S  -2.078059  0.096634  -0.081197
O  -3.487480  0.354720  -0.105202
O  -1.199171  0.598892  -1.124294
O  -1.539474  0.543925  1.327671
O  -1.802294  -1.482248  -0.090569
H  -0.546193  0.521284  1.335315
H  -2.449302  -1.935669  0.470632
