14
-1400.26847022
S  2.276601  -0.043908  -0.131746
O  1.430746  0.043051  -1.304852
O  3.673801  -0.357324  -0.206547
O  2.077599  1.361008  0.608617
O  1.633030  -1.071904  0.897789
H  2.760367  1.474036  1.286996
H  0.657911  -1.073838  0.806263
S  -2.237083  0.113522  0.126421
O  -1.974541  1.512831  -0.042245
O  -2.683026  -0.483339  1.356434
O  -3.242481  -0.292283  -1.052251
O  -0.919873  -0.722933  -0.279352
H  -3.628582  -1.160387  -0.861833
H  -0.384022  -0.266492  -0.966981
