14
-1400.28156419
S  2.066600  -0.086346  -0.095393
O  1.144215  -0.418839  -1.167653
O  3.455247  -0.434091  -0.172078
O  1.911570  1.502417  0.058837
O  1.515772  -0.636556  1.269837
H  2.626629  1.844274  0.616412
H  0.525353  -0.563789  1.300499
S  -2.066283  -0.086519  0.095490
O  -3.453641  -0.439014  0.172894
O  -1.142115  -0.415853  1.167102
O  -1.514214  -0.634909  -1.270124
O  -1.916913  1.502582  -0.059026
H  -0.523676  -0.562476  -1.299665
H  -2.632738  1.841946  -0.617125
