14
-1400.27450375
S  2.048401  -0.140132  0.042738
O  3.350267  -0.483372  0.533626
O  1.074114  -1.150026  -0.317736
O  1.414128  0.870858  1.076785
O  2.191856  0.758527  -1.282952
H  0.472422  1.050839  0.852469
H  3.011446  1.273286  -1.232853
S  -2.151597  -0.066971  0.077677
O  -1.912863  -0.695527  1.344832
O  -3.439838  0.371178  -0.376690
O  -1.158872  1.251185  0.118928
O  -1.504244  -0.886642  -1.104810
H  -1.367825  1.845195  -0.617311
H  -0.581304  -1.145112  -0.864804
