14
-1400.27912705
S  -1.962345  0.115878  0.065424
O  -2.190853  1.528374  0.069376
O  -1.123507  -0.492235  1.099509
O  -3.390142  -0.577899  0.110818
O  -1.460890  -0.407254  -1.336706
H  -3.296041  -1.539758  0.181870
H  -0.468527  -0.465163  -1.340061
S  2.078184  -0.096576  -0.081341
O  1.198564  -0.596582  -1.124901
O  3.487293  -0.356013  -0.105993
O  1.804163  1.482563  -0.088462
O  1.539486  -0.545363  1.327014
H  2.452016  1.934530  0.472948
H  0.546211  -0.523170  1.334660
