14
-1400.27912703
S  -2.078203  0.096556  -0.081411
O  -1.198487  0.595670  -1.125254
O  -3.487304  0.356246  -0.106284
O  -1.804290  -1.482686  -0.087606
O  -1.539343  0.546057  1.326669
H  -2.451626  -1.934059  0.474866
H  -0.546053  0.521661  1.334671
S  1.962283  -0.116079  0.065025
O  1.123603  0.487794  1.101738
O  2.190522  -1.528707  0.063199
O  1.461156  0.413088  -1.335057
O  3.390055  0.577252  0.113034
H  0.468804  0.468234  -1.339194
H  3.296300  1.538808  0.188322
