14
-1400.28156473
S  -2.066985  -0.086100  0.095834
O  -1.142103  -0.408374  1.169142
O  -3.454056  -0.439926  0.175639
O  -1.919670  1.502387  -0.066929
O  -1.514675  -0.641183  -1.266720
H  -2.636992  1.838252  -0.625219
H  -0.524481  -0.564287  -1.298871
S  2.066934  -0.086230  -0.095728
O  3.453805  -0.440766  -0.175451
O  1.141618  -0.410311  -1.168078
O  1.514904  -0.638615  1.268122
O  1.920225  1.502522  0.064241
H  0.524720  -0.561727  1.300168
H  2.637205  1.839159  0.622503
