14
-1400.28156472
S  2.066927  0.086170  0.095795
O  1.141983  0.409830  1.168574
O  3.453935  0.440229  0.175213
O  1.919515  -1.502481  -0.064792
O  1.514778  0.639372  -1.267679
H  2.635062  -1.838897  -0.625022
H  0.524593  0.563030  -1.299477
S  -2.066909  0.086212  -0.095797
O  -3.454022  0.439735  -0.175351
O  -1.141991  0.410081  -1.168528
O  -1.514933  0.639781  1.267570
O  -1.919154  -1.502383  0.065196
H  -0.524746  0.563500  1.299409
H  -2.636086  -1.839053  0.623498
