14
-1400.27450371
S  -2.048223  -0.140266  -0.042415
O  -1.073357  -1.148857  0.320021
O  -3.350028  -0.485028  -0.532401
O  -2.191888  0.761191  1.281390
O  -1.414449  0.868757  -1.078753
H  -3.011631  1.275582  1.230157
H  -0.472646  1.049081  -0.855116
S  2.151414  -0.067046  -0.077642
O  3.439807  0.372461  0.374952
O  1.911984  -0.698276  -1.343342
O  1.505179  -0.884601  1.106963
O  1.158205  1.250688  -0.120859
H  0.582414  -1.144408  0.867846
H  1.367185  1.846057  0.614266
