14
-1400.28156476
S  -2.067054  -0.086130  0.095821
O  -1.142059  -0.409106  1.168775
O  -3.454070  -0.440064  0.175548
O  -1.919764  1.502420  -0.066029
O  -1.514844  -0.640394  -1.267181
H  -2.637018  1.838642  -0.624184
H  -0.524683  -0.563574  -1.299195
S  2.067037  -0.086149  -0.095811
O  3.453997  -0.440292  -0.175508
O  1.141974  -0.409228  -1.168682
O  1.514834  -0.640040  1.267349
O  1.919959  1.502446  0.065706
H  0.524687  -0.563211  1.299366
H  2.637075  1.838682  0.624032
