14
-1400.27077859
S  2.124799  -0.006292  0.053391
O  2.228363  -0.462090  1.417206
O  3.239549  0.061802  -0.840303
O  0.978859  -0.963284  -0.644886
O  1.388252  1.387053  -0.041462
H  0.735130  -1.656010  -0.009033
H  0.554094  1.386775  0.481053
S  -1.887526  -0.021498  0.106143
O  -1.191265  1.011458  0.843383
O  -1.810933  -1.397003  0.541529
O  -3.394156  0.452501  0.008021
O  -1.505907  0.067703  -1.436709
H  -3.959550  -0.286799  -0.263587
H  -0.588140  -0.264447  -1.535202
