14
-1400.26847019
S  -2.236659  0.113312  0.126668
O  -2.682395  -0.485468  1.355812
O  -1.972183  1.512601  -0.039269
O  -0.920978  -0.724217  -0.282051
O  -3.243631  -0.288586  -1.051982
H  -0.385183  -0.266827  -0.969040
H  -3.631215  -1.156297  -0.862790
S  2.276365  -0.044038  -0.131703
O  1.430709  0.043165  -1.304896
O  3.673261  -0.358944  -0.206204
O  2.078966  1.361501  0.607887
O  1.631584  -1.070674  0.898399
H  2.761715  1.473991  1.286368
H  0.656721  -1.074293  0.804467
