14
-1400.27912721
S  -2.078086  -0.096565  0.081325
O  -1.199025  -0.597477  1.124850
O  -3.487463  -0.354903  0.105621
O  -1.802712  1.482387  0.089069
O  -1.539442  -0.545228  -1.327146
H  -2.449109  1.934836  -0.473635
H  -0.546143  -0.522310  -1.334681
S  1.962248  0.115866  -0.065383
O  2.192355  1.528187  -0.069018
O  1.122878  -0.491100  -1.099725
O  3.389153  -0.579347  -0.110806
O  1.460065  -0.406905  1.336705
H  3.294318  -1.541056  -0.182756
H  0.467879  -0.465190  1.339601
