14
-1400.27367434
S  -1.946368  0.025957  0.132479
O  -2.231771  1.035929  1.108787
O  -1.088531  -1.103039  0.478888
O  -3.328538  -0.538363  -0.396341
O  -1.417268  0.663344  -1.222336
H  -3.184169  -1.333826  -0.931657
H  -0.485808  0.948178  -1.094590
S  2.126812  -0.082737  -0.076107
O  1.861339  -0.846528  -1.262624
O  3.426586  0.393868  0.299007
O  1.133669  1.220257  -0.246246
O  1.504464  -0.768691  1.201084
H  1.329100  1.886015  0.430408
H  0.574183  -1.046100  1.012131
