14
-1400.27912712
S  -2.078275  -0.096724  0.081136
O  -1.199478  -0.599348  1.124097
O  -3.487601  -0.355386  0.104488
O  -1.803066  1.482265  0.091934
O  -1.538975  -0.542557  -1.328012
H  -2.447662  1.935503  -0.472188
H  -0.545613  -0.520077  -1.334816
S  1.962345  0.115916  -0.065276
O  1.123105  -0.489786  -1.100381
O  2.192628  1.528189  -0.067233
O  1.459884  -0.408408  1.336209
O  3.389254  -0.579348  -0.111313
H  0.467723  -0.466477  1.339036
H  3.294414  -1.540983  -0.184099
