14
-1400.27450356
S  2.048556  -0.140647  0.041368
O  1.074554  -1.146457  -0.330907
O  3.349434  -0.489289  0.531019
O  2.194537  0.771153  -1.275081
O  1.413246  0.860389  1.084442
H  3.013682  1.285874  -1.218010
H  0.471742  1.042595  0.861418
S  -2.151881  -0.067282  0.077510
O  -1.911262  -0.703189  1.340606
O  -3.440751  0.373643  -0.372244
O  -1.158524  1.250189  0.125082
O  -1.506507  -0.880164  -1.110808
H  -1.366908  1.847848  -0.608348
H  -0.583126  -1.139652  -0.873978
