14
-1400.27912716
S  -2.078066  -0.096757  0.081122
O  -1.199065  -0.600525  1.123326
O  -3.487444  -0.355081  0.104743
O  -1.802499  1.482239  0.092750
O  -1.539536  -0.541885  -1.328463
H  -2.449428  1.936190  -0.468121
H  -0.546236  -0.518791  -1.335986
S  1.962199  0.116089  -0.065161
O  2.192608  1.528345  -0.064733
O  1.122558  -0.487673  -1.101075
O  3.389041  -0.579260  -0.112665
O  1.460263  -0.410743  1.335547
H  3.294028  -1.540900  -0.185251
H  0.468101  -0.469148  1.338534
