14
-1400.27450378
S  2.048531  -0.140215  0.042480
O  1.074488  -1.149658  -0.319854
O  3.350539  -0.483951  0.532647
O  2.191606  0.760945  -1.281548
O  1.413949  0.868601  1.078483
H  3.010972  1.275964  -1.230513
H  0.472210  1.048924  0.854296
S  -2.151740  -0.067144  0.077471
O  -3.439598  0.372421  -0.376567
O  -1.913801  -0.698733  1.343248
O  -1.503935  -0.884127  -1.106649
O  -1.158730  1.250787  0.122349
H  -0.581259  -1.143488  -0.866721
H  -1.366711  1.846075  -0.613144
