14
-1400.27450357
S  -2.048289  -0.139946  -0.043442
O  -1.074007  -1.151887  0.310917
O  -3.350672  -0.480204  -0.535009
O  -2.190340  0.751781  1.287096
O  -1.414639  0.876340  -1.072738
H  -3.009650  1.267282  1.240256
H  -0.472721  1.054851  -0.848130
S  2.151440  -0.066429  -0.078100
O  3.439501  0.370107  0.378247
O  1.912799  -0.688575  -1.348396
O  1.504985  -0.892642  1.100373
O  1.157846  1.251245  -0.112288
H  0.582217  -1.150592  0.859461
H  1.365970  1.841142  0.627486
