14
-1400.28156372
S  2.067619  0.086362  0.095323
O  1.144504  0.420379  1.166467
O  3.456046  0.435015  0.172300
O  1.913124  -1.502603  -0.056156
O  1.517325  0.633967  -1.271304
H  2.626777  -1.845346  -0.614968
H  0.527136  0.558432  -1.303431
S  -2.066651  0.086352  -0.095903
O  -3.452219  0.445696  -0.176636
O  -1.140044  0.402779  -1.169416
O  -1.512159  0.641633  1.265664
O  -1.926434  -1.502532  0.069909
H  -0.521976  0.563463  1.296866
H  -2.648574  -1.834641  0.624198
