14
-1400.27501459
S  -2.082444  0.124014  0.037664
O  -2.518700  1.467184  -0.186680
O  -1.142095  -0.173965  1.121577
O  -3.390188  -0.749047  0.258526
O  -1.522372  -0.547566  -1.277404
H  -3.156119  -1.662534  0.480863
H  -0.529951  -0.541995  -1.255433
S  2.121525  0.076858  -0.107492
O  1.124385  -0.600669  -0.936728
O  2.988897  1.073449  -0.648279
O  1.395791  0.645204  1.168285
O  3.071767  -1.055297  0.496763
H  0.443898  0.361318  1.205669
H  2.557017  -1.845080  0.717670
