14
-1400.27450350
S  -2.048060  -0.139824  -0.043590
O  -3.351405  -0.478531  -0.533595
O  -1.073953  -1.153013  0.307769
O  -1.415139  0.877362  -1.072415
O  -2.187324  0.750111  1.288459
H  -0.473034  1.055649  -0.848103
H  -3.006270  1.266382  1.243599
S  2.151144  -0.066554  -0.077815
O  3.438450  0.370009  0.380596
O  1.914564  -0.688995  -1.348339
O  1.502560  -0.892245  1.099749
O  1.157850  1.251419  -0.114194
H  0.580228  -1.150515  0.857090
H  1.364913  1.841596  0.625652
