14
-1400.27450367
S  -2.048518  -0.140867  -0.040537
O  -1.074300  -1.144571  0.336968
O  -3.350091  -0.492169  -0.526464
O  -2.192635  0.779298  1.270291
O  -1.413728  0.853251  -1.090475
H  -3.012534  1.292638  1.211702
H  -0.472202  1.036831  -0.868400
S  2.151826  -0.067997  -0.076733
O  1.913502  -0.715297  -1.334467
O  3.439763  0.377748  0.370909
O  1.157974  1.248683  -0.137427
O  1.505176  -0.870412  1.118019
H  1.364485  1.852313  0.591644
H  0.582042  -1.132215  0.882551
