14
-1400.27450338
S  -2.152147  0.067214  -0.077851
O  -1.909733  0.697422  -1.343512
O  -3.441964  -0.370135  0.372756
O  -1.160648  -1.251902  -0.119063
O  -1.506552  0.884242  1.107356
H  -1.370171  -1.845870  0.617049
H  -0.582442  1.141337  0.870132
S  2.048611  0.140447  -0.042163
O  3.346948  0.489927  -0.537916
O  1.073589  1.145620  0.329309
O  1.411550  -0.866378  -1.078561
O  2.201369  -0.765158  1.277680
H  0.471072  -1.049115  -0.851403
H  3.021650  -1.278026  1.220053
