14
-1400.28156475
S  2.067011  0.086117  0.095805
O  1.142054  0.409739  1.168605
O  3.454113  0.439731  0.175511
O  1.919248  -1.502440  -0.065504
O  1.515091  0.640092  -1.267435
H  2.636173  -1.839036  -0.623858
H  0.524959  0.563062  -1.299664
S  -2.066924  0.086107  -0.095867
O  -3.453797  0.440520  -0.176037
O  -1.141590  0.408275  -1.168771
O  -1.514814  0.640816  1.266980
O  -1.920308  -1.502414  0.066729
H  -0.524661  0.563960  1.299069
H  -2.637839  -1.838137  0.624831
