14
-1400.27912716
S  1.961463  -0.115908  0.065253
O  2.190051  -1.528476  0.066652
O  1.123048  0.490288  1.100812
O  3.389111  0.577807  0.111308
O  1.459611  0.409644  -1.335865
H  3.295241  1.539520  0.184442
H  0.467409  0.467906  -1.338953
S  -2.077568  0.096584  -0.081208
O  -1.199313  0.599960  -1.124276
O  -3.487243  0.353199  -0.104970
O  -1.800053  -1.482044  -0.090901
O  -1.539325  0.544259  1.327660
H  -2.446069  -1.936200  0.470859
H  -0.546012  0.520859  1.335552
