14
-1400.28156473
S  -2.066903  -0.086161  0.095826
O  -3.453742  -0.440716  0.175718
O  -1.141613  -0.408920  1.168563
O  -1.514709  -0.639850  -1.267441
O  -1.920223  1.502457  -0.065599
H  -0.524527  -0.563360  -1.299369
H  -2.636482  1.838351  -0.625226
S  2.066992  -0.086127  -0.095794
O  1.142262  -0.410079  -1.168704
O  3.454253  -0.439129  -0.175398
O  1.918551  1.502368  0.065526
O  1.515157  -0.640333  1.267399
H  2.635123  1.839243  0.624171
H  0.524968  -0.563998  1.299410
