14
-1400.27740538
S  2.040912  0.021207  0.103120
O  1.143362  0.197410  1.244216
O  3.454092  0.076057  0.284307
O  1.691930  -1.364166  -0.595740
O  1.645107  1.089750  -1.008392
H  0.733027  -1.412150  -0.773807
H  0.690148  1.001246  -1.202356
S  -1.929830  -0.132071  -0.008674
O  -2.472101  -1.392391  0.394302
O  -0.868652  -0.115579  -1.026593
O  -3.146658  0.755635  -0.504738
O  -1.433471  0.748258  1.198650
H  -2.851832  1.641715  -0.763368
H  -0.457510  0.583212  1.340296
