14
-1400.27367436
S  1.948253  0.027427  -0.132551
O  1.088231  -1.094833  -0.494690
O  2.243135  1.045698  -1.097246
O  1.414196  0.653533  1.225605
O  3.325434  -0.547241  0.398429
H  0.483301  0.939952  1.097460
H  3.174930  -1.346363  0.926548
S  -2.127655  -0.083544  0.075713
O  -1.857774  -0.855596  1.255896
O  -3.429351  0.392707  -0.292982
O  -1.137066  1.220270  0.253569
O  -1.506424  -0.758480  -1.207923
H  -1.335648  1.891066  -0.417125
H  -0.575206  -1.035246  -1.022733
