14
-1400.28156476
S  2.066989  -0.086109  -0.095842
O  3.454008  -0.440013  -0.175663
O  1.141981  -0.408928  -1.168848
O  1.514849  -0.640608  1.267083
O  1.919637  1.502404  0.066249
H  0.524703  -0.563711  1.299240
H  2.636613  1.838523  0.624828
S  -2.067005  -0.086128  0.095824
O  -1.142092  -0.409263  1.168813
O  -3.454060  -0.439942  0.175457
O  -1.919523  1.502402  -0.065897
O  -1.514804  -0.640338  -1.267201
H  -2.636369  1.838711  -0.624526
H  -0.524647  -0.563456  -1.299222
