14
-1400.27912712
S  2.077879  0.096778  0.081080
O  1.198650  0.600116  1.123317
O  3.487122  0.355728  0.104807
O  1.802941  -1.482254  0.092916
O  1.539002  0.541541  -1.328491
H  2.448331  -1.935879  -0.469992
H  0.545618  0.519188  -1.335696
S  -1.961940  -0.115918  -0.065216
O  -1.123300  0.489753  -1.100952
O  -2.191401  -1.528338  -0.066579
O  -1.459571  0.409315  1.335793
O  -3.389263  0.578509  -0.111169
H  -0.467345  0.467752  1.338453
H  -3.295057  1.540228  -0.183720
