14
-1400.26847028
S  -2.236783  0.113350  0.126605
O  -2.683791  -0.484750  1.355616
O  -1.972277  1.512578  -0.039779
O  -0.920712  -0.724349  -0.280423
O  -3.242445  -0.289219  -1.052946
H  -0.384345  -0.267355  -0.967219
H  -3.629646  -1.157161  -0.864011
S  2.276397  -0.044015  -0.131694
O  3.673532  -0.357788  -0.206137
O  1.430738  0.042101  -1.304986
O  1.632566  -1.070908  0.898808
O  2.077670  1.361589  0.607382
H  0.657536  -1.073867  0.806639
H  2.760392  1.474995  1.285741
