14
-1400.27912720
S  -2.077986  0.096672  -0.081164
O  -1.199361  0.600461  -1.123690
O  -3.487490  0.354248  -0.104746
O  -1.801450  -1.482077  -0.092369
O  -1.539537  0.542521  1.328302
H  -2.446563  -1.936228  0.470430
H  -0.546256  0.520119  1.335848
S  1.961968  -0.115908  0.065266
O  1.123240  0.489893  1.100778
O  2.191241  -1.528382  0.066566
O  1.459799  0.409431  -1.335889
O  3.389347  0.578373  0.111334
H  0.467641  0.468089  -1.338596
H  3.295144  1.540056  0.184395
