14
-1400.26847023
S  -2.236810  0.113340  0.126649
O  -2.682579  -0.485291  1.355844
O  -1.972576  1.512636  -0.039530
O  -0.920891  -0.724014  -0.281735
O  -3.243516  -0.289012  -1.052086
H  -0.385096  -0.266679  -0.968743
H  -3.631051  -1.156701  -0.862694
S  2.276460  -0.044085  -0.131702
O  3.673260  -0.359394  -0.206127
O  1.430897  0.043297  -1.304944
O  1.631345  -1.070449  0.898460
O  2.079422  1.361574  0.607809
H  0.656447  -1.073527  0.804705
H  2.762410  1.474047  1.286050
