14
-1400.28156425
S  2.067921  -0.085958  -0.095913
O  3.455053  -0.439409  -0.175769
O  1.143144  -0.408813  -1.169139
O  1.515893  -0.641147  1.266807
O  1.919782  1.502411  0.066679
H  0.526004  -0.561367  1.300024
H  2.635966  1.838692  0.626175
S  -2.067205  -0.085878  0.096389
O  -1.139468  -0.396436  1.170664
O  -3.452153  -0.447129  0.179576
O  -1.929316  1.502347  -0.075864
O  -1.512998  -0.645952  -1.263347
H  -2.649827  1.830952  -0.634360
H  -0.523088  -0.565873  -1.296320
