14
-1400.26847029
S  2.236864  -0.113379  0.126580
O  1.972748  -1.512641  -0.040102
O  2.683743  0.484643  1.355667
O  3.242346  0.289759  -1.052949
O  0.920452  0.723990  -0.280072
H  3.629339  1.157760  -0.863861
H  0.384173  0.267107  -0.967049
S  -2.276384  0.044026  -0.131729
O  -1.430642  -0.043039  -1.304890
O  -3.673287  0.358761  -0.206439
O  -2.078708  -1.361513  0.607804
O  -1.632022  1.070741  0.898542
H  -2.761271  -1.474050  1.286467
H  -0.656964  1.073212  0.806340
