14
-1400.26502616
S  -2.332454  0.116288  0.111714
O  -2.785146  -0.435990  1.359471
O  -2.165064  1.517055  -0.141519
O  -0.938862  -0.640376  -0.189378
O  -3.253343  -0.441744  -1.074717
H  -0.415015  -0.194050  -0.891845
H  -3.605203  -1.309708  -0.826441
S  2.265733  0.137898  -0.030660
O  2.705282  1.370652  0.543455
O  1.409100  0.113457  -1.210998
O  3.577980  -0.711388  -0.323470
O  1.589180  -0.799609  1.072010
H  3.356118  -1.524713  -0.800675
H  0.618623  -0.814956  0.943269
