14
-1400.27912720
S  -2.077870  0.096549  -0.081271
O  -1.199214  0.598272  -1.124817
O  -3.487391  0.354092  -0.105314
O  -1.801600  -1.482261  -0.089383
O  -1.539282  0.545229  1.327135
H  -2.448564  -1.935387  0.472117
H  -0.545961  0.522838  1.334667
S  1.961908  -0.115784  0.065491
O  2.191464  -1.528219  0.070219
O  1.123198  0.492417  1.099639
O  3.389181  0.578796  0.109904
O  1.459602  0.406028  -1.336848
H  3.294838  1.540611  0.181040
H  0.467412  0.464880  -1.339635
