14
-1400.28156467
S  -2.067004  -0.086342  0.095555
O  -1.142767  -0.412926  1.168066
O  -3.454326  -0.439390  0.173726
O  -1.918377  1.502573  -0.061926
O  -1.514705  -0.637257  -1.268722
H  -2.634595  1.840780  -0.620212
H  -0.524365  -0.561838  -1.299943
S  2.066957  -0.086292  -0.095637
O  1.141995  -0.411415  -1.167988
O  3.454058  -0.439944  -0.174754
O  1.919252  1.502496  0.063489
O  1.514729  -0.638350  1.268267
H  2.636398  1.839900  0.621071
H  0.524432  -0.563001  1.299142
