14
-1400.26847025
S  -2.236563  0.113330  0.126580
O  -2.682541  -0.484860  1.355910
O  -1.972469  1.512605  -0.040081
O  -0.920454  -0.724008  -0.281223
O  -3.242979  -0.289549  -1.052164
H  -0.384055  -0.266404  -0.967563
H  -3.630241  -1.157345  -0.862707
S  2.276241  -0.043900  -0.131729
O  1.431285  0.043014  -1.305459
O  3.673538  -0.357121  -0.205626
O  2.076591  1.360990  0.608626
O  1.632383  -1.071886  0.897511
H  2.759297  1.474195  1.287036
H  0.657318  -1.074811  0.805657
