14
-1400.27912701
S  1.961267  0.115805  -0.065284
O  1.123722  -0.492991  -1.100022
O  2.186710  1.528894  -0.067780
O  1.461027  -0.409970  1.336337
O  3.390374  -0.574916  -0.111429
H  0.468839  -0.468017  1.340157
H  3.298430  -1.536810  -0.184780
S  -2.077415  -0.096626  0.081252
O  -3.486761  -0.355214  0.105316
O  -1.198442  -0.597655  1.124826
O  -1.538485  -0.544813  -1.327146
O  -1.802454  1.482426  0.089438
H  -0.545109  -0.522955  -1.334420
H  -2.449316  1.934828  -0.472775
