14
-1400.27912706
S  1.962878  0.116006  -0.065291
O  1.123401  -0.488679  -1.100851
O  2.194100  1.528152  -0.066799
O  1.459908  -0.408525  1.335886
O  3.389257  -0.580361  -0.111080
H  0.467554  -0.463851  1.339068
H  3.293622  -1.541893  -0.184271
S  -2.078562  -0.096597  0.081382
O  -3.487709  -0.356118  0.105612
O  -1.199214  -0.596342  1.125231
O  -1.539382  -0.545435  -1.326809
O  -1.804464  1.482612  0.088387
H  -0.546130  -0.521556  -1.334451
H  -2.451289  1.934313  -0.474422
