14
-1400.27450361
S  2.048507  -0.139873  0.043540
O  1.074401  -1.151885  -0.311323
O  3.350467  -0.480091  0.536302
O  2.191844  0.751365  -1.287180
O  1.413998  0.876689  1.071949
H  3.011576  1.266181  -1.240125
H  0.472187  1.055209  0.846621
S  -2.151743  -0.066584  0.077938
O  -3.439592  0.369897  -0.379087
O  -1.913751  -0.689308  1.348080
O  -1.504111  -0.891985  -1.100414
O  -1.158652  1.251560  0.113429
H  -0.581621  -1.150168  -0.858528
H  -1.367187  1.842156  -0.625678
