14
-1400.27077857
S  -1.887445  -0.021419  0.106152
O  -1.191270  1.012185  0.842588
O  -1.810957  -1.396499  0.542943
O  -3.394008  0.452586  0.007384
O  -1.505390  0.066363  -1.436641
H  -3.959354  -0.286767  -0.264173
H  -0.587509  -0.265825  -1.534495
S  2.124650  -0.006253  0.053537
O  2.226762  -0.461951  1.417514
O  3.240341  0.061537  -0.839010
O  0.979077  -0.963220  -0.645701
O  1.388257  1.387093  -0.042287
H  0.735439  -1.656380  -0.010282
H  0.553646  1.386967  0.479607
