14
-1400.27450360
S  2.151575  -0.066726  -0.077911
O  1.912664  -0.692239  -1.346509
O  3.439765  0.371005  0.376980
O  1.158062  1.251074  -0.115490
O  1.505096  -0.889607  1.102948
H  1.367177  1.843199  0.622227
H  0.582256  -1.147988  0.862547
S  -2.048305  -0.140089  -0.043052
O  -3.349985  -0.483032  -0.534652
O  -1.073245  -1.150011  0.315007
O  -1.414698  0.873715  -1.074792
O  -2.192300  0.755400  1.284713
H  -0.472857  1.052957  -0.850439
H  -3.011772  1.270427  1.235448
