14
-1400.27367439
S  1.948171  0.027372  -0.132535
O  2.242159  1.045632  -1.097538
O  1.087997  -1.094931  -0.493964
O  3.325876  -0.547015  0.397437
O  1.415018  0.653482  1.226071
H  3.175876  -1.345847  0.926140
H  0.483895  0.939371  1.098585
S  -2.127711  -0.083291  0.075817
O  -3.429043  0.394061  -0.292744
O  -1.858355  -0.855146  1.256258
O  -1.507601  -0.759524  -1.207793
O  -1.135733  1.219420  0.252810
H  -0.576492  -1.036541  -1.022947
H  -1.333171  1.889880  -0.418569
