14
-1400.27549234
S  2.034381  0.113212  -0.061480
O  1.160047  -0.454686  -1.088878
O  2.341924  1.510051  -0.072962
O  1.504233  -0.371738  1.345847
O  3.419910  -0.661940  -0.102936
H  0.511183  -0.367235  1.346595
H  3.271184  -1.616022  -0.182344
S  -2.034429  0.113440  0.061126
O  -2.342388  1.510220  0.067189
O  -1.160034  -0.450165  1.090812
O  -3.419806  -0.661863  0.105148
O  -1.503874  -0.376810  -1.344229
H  -3.270877  -1.615780  0.186121
H  -0.510800  -0.371939  -1.344657
