14
-1400.26847026
S  2.276619  0.044042  0.131733
O  1.430766  -0.042551  1.304812
O  3.673624  0.358316  0.206467
O  2.078623  -1.361551  -0.607764
O  1.632675  1.070887  -0.898647
H  2.762489  -1.475059  -1.284952
H  0.657594  1.073322  -0.806845
S  -2.237221  -0.113479  -0.126493
O  -1.973633  -1.512683  0.041170
O  -2.683945  0.483847  -1.355974
O  -3.242365  0.290858  1.052786
O  -0.920402  0.723701  0.279399
H  -3.628963  1.158949  0.863329
H  -0.384232  0.267177  0.966650
