14
-1400.28156448
S  2.066746  -0.086261  -0.095778
O  1.141571  -0.407030  -1.169293
O  3.453221  -0.442459  -0.175255
O  1.922198  1.502489  0.066663
O  1.513118  -0.640113  1.266669
H  2.638916  1.837064  0.626492
H  0.522687  -0.564857  1.297290
S  -2.067174  -0.086245  0.095548
O  -3.455015  -0.437254  0.173591
O  -1.143420  -0.414894  1.167912
O  -1.515678  -0.637460  -1.268981
O  -1.915814  1.502436  -0.061123
H  -0.525614  -0.559990  -1.301209
H  -2.630588  1.842159  -0.620352
