14
-1400.27193069
S  -2.159635  0.020178  -0.048648
O  -2.282558  0.884722  -1.195781
O  -3.264008  -0.335868  0.787170
O  -1.402249  -1.317016  -0.396802
O  -1.009848  0.729798  0.905782
H  -0.557445  -1.131099  -0.869644
H  -0.813630  1.599845  0.524378
S  2.047918  -0.120167  -0.087760
O  1.118996  -0.585808  -1.097227
O  3.428088  -0.504333  -0.082872
O  1.929399  1.484592  -0.161001
O  1.471504  -0.429834  1.352729
H  2.718446  1.882699  0.237209
H  0.525504  -0.161639  1.394611
