14
-1400.27450348
S  2.048248  -0.139848  0.043745
O  3.350269  -0.479703  0.536574
O  1.073624  -1.152048  -0.308892
O  1.414592  0.878847  1.070643
O  2.191341  0.749022  -1.288600
H  0.472751  1.057066  0.845432
H  3.010881  1.264220  -1.242404
S  -2.151451  -0.066311  0.078222
O  -1.912448  -0.686009  1.349673
O  -3.439668  0.369187  -0.378708
O  -1.158080  1.251600  0.109728
O  -1.505033  -0.894696  -1.098764
H  -1.366650  1.840307  -0.630860
H  -0.582517  -1.152646  -0.856874
