14
-1400.28257473
S  1.762721  0.026235  -0.077428
O  1.262930  -1.169494  -0.739947
O  1.258914  1.310262  -0.512162
O  1.617716  -0.134150  1.482494
O  3.335427  0.085865  -0.194211
H  0.644235  -0.171488  1.669789
H  3.714748  -0.803573  -0.117434
S  -1.936811  -0.016037  0.100003
O  -1.042867  -0.135253  1.252301
O  -3.353652  -0.043208  0.266918
O  -1.571519  1.324446  -0.664376
O  -1.555027  -1.158931  -0.931456
H  -0.603746  1.487212  -0.648335
H  -0.585171  -1.311625  -0.941711
