14
-1400.27912717
S  2.078281  -0.096656  -0.081223
O  3.487697  -0.354800  -0.104613
O  1.199619  -0.599144  -1.124321
O  1.539228  -0.543546  1.327630
O  1.802637  1.482253  -0.091030
H  0.545962  -0.521542  1.334734
H  2.448696  1.935635  0.471295
S  -1.962399  0.115834  0.065520
O  -1.122955  -0.491712  1.099339
O  -2.192969  1.528092  0.070143
O  -1.459913  -0.405646  -1.336975
O  -3.389195  -0.579813  0.110209
H  -0.467868  -0.464876  -1.339360
H  -3.294103  -1.541542  0.181529
