14
-1400.27450380
S  2.048561  -0.140406  0.041747
O  3.350212  -0.487010  0.530907
O  1.074767  -1.147889  -0.326729
O  1.413372  0.862789  1.082780
O  2.192626  0.768033  -1.277204
H  0.471750  1.044536  0.859053
H  3.012426  1.282040  -1.223113
S  -2.151800  -0.067608  0.077101
O  -3.439871  0.373883  -0.374466
O  -1.913524  -0.705525  1.339628
O  -1.503845  -0.878296  -1.111163
O  -1.159146  1.250287  0.128533
H  -0.580989  -1.138522  -0.872721
H  -1.368095  1.849982  -0.603081
