14
-1400.27912720
S  1.961844  0.115824  -0.065407
O  1.123207  -0.491684  -1.100021
O  2.191100  1.528282  -0.069049
O  1.459647  -0.407210  1.336526
O  3.389236  -0.578504  -0.110360
H  0.467429  -0.465571  1.339430
H  3.295011  -1.540291  -0.182023
S  -2.077796  -0.096616  0.081209
O  -1.199092  -0.598684  1.124530
O  -3.487232  -0.354598  0.105104
O  -1.801934  1.482269  0.090303
O  -1.539060  -0.544260  -1.327490
H  -2.448463  1.935466  -0.471637
H  -0.545728  -0.521818  -1.334939
