14
-1400.27450368
S  2.048342  -0.140493  0.041489
O  1.074298  -1.146824  -0.329176
O  3.349749  -0.488480  0.530196
O  2.192957  0.770422  -1.275716
O  1.413238  0.860746  1.084462
H  3.012835  1.284176  -1.220366
H  0.471811  1.043254  0.860841
S  -2.151577  -0.067729  0.077115
O  -1.912314  -0.706726  1.338898
O  -3.440076  0.373795  -0.373202
O  -1.159080  1.250346  0.129154
O  -1.504155  -0.877179  -1.112346
H  -1.369318  1.851144  -0.601177
H  -0.580527  -1.135820  -0.875114
