14
-1400.26847022
S  2.236259  -0.113467  0.126477
O  1.972764  -1.512648  -0.041941
O  2.681282  0.483517  1.356770
O  3.243263  0.291066  -1.051225
O  0.920127  0.723897  -0.281185
H  3.629219  1.159312  -0.861154
H  0.383972  0.266633  -0.967968
S  -2.276123  0.043942  -0.131638
O  -3.673790  0.355830  -0.204320
O  -1.431858  -0.041134  -1.306018
O  -1.632462  1.071699  0.897976
O  -2.074534  -1.361365  0.607407
H  -0.657463  1.075120  0.805341
H  -2.756251  -1.475572  1.286645
