14
-1400.28156472
S  2.067032  0.086135  0.095719
O  1.142724  0.411744  1.168483
O  3.454539  0.438224  0.174807
O  1.917304  -1.502392  -0.064141
O  1.515391  0.639525  -1.267894
H  2.633268  -1.840290  -0.622942
H  0.525239  0.562862  -1.300062
S  -2.066768  0.086192  -0.095834
O  -3.453435  0.441462  -0.175666
O  -1.141457  0.407870  -1.168914
O  -1.514024  0.640293  1.266987
O  -1.921107  -1.502464  0.066478
H  -0.523786  0.563823  1.298586
H  -2.638417  -1.837729  0.625137
