14
-1400.26847025
S  -2.276293  0.043911  -0.131722
O  -1.430611  -0.043987  -1.304872
O  -3.673317  0.358087  -0.206572
O  -2.078004  -1.360861  0.609018
O  -1.632082  1.071824  0.897452
H  -2.760544  -1.473267  1.287716
H  -0.656999  1.074006  0.805345
S  2.236649  -0.113423  0.126487
O  1.973219  -1.512711  -0.041075
O  2.682211  0.484162  1.356315
O  3.243065  0.290733  -1.051847
O  0.920294  0.723611  -0.280942
H  3.629820  1.158626  -0.861797
H  0.383827  0.265987  -0.967310
