14
-1400.27912710
S  -2.077689  -0.096632  0.081162
O  -1.199135  -0.598613  1.124651
O  -3.487152  -0.354668  0.104817
O  -1.801946  1.482308  0.090298
O  -1.538575  -0.544228  -1.327376
H  -2.448302  1.935350  -0.471961
H  -0.545126  -0.522072  -1.334300
S  1.961705  0.115833  -0.065366
O  2.190574  1.528335  -0.069206
O  1.122641  -0.491990  -1.099445
O  3.389144  -0.578183  -0.110971
O  1.460183  -0.407247  1.336867
H  3.295219  -1.539939  -0.183453
H  0.468064  -0.466276  1.339894
