14
-1400.27912722
S  1.962210  -0.115857  0.065496
O  2.192786  -1.528100  0.069595
O  1.123138  0.491276  1.099918
O  3.388990  0.579819  0.109986
O  1.459437  0.406131  -1.336675
H  3.293866  1.541526  0.181523
H  0.467273  0.464950  -1.339264
S  -2.078138  0.096543  -0.081282
O  -1.199440  0.598763  -1.124576
O  -3.487703  0.353793  -0.105375
O  -1.801437  -1.482180  -0.089829
O  -1.539771  0.544965  1.327362
H  -2.447768  -1.935602  0.472156
H  -0.546513  0.522413  1.334913
