14
-1400.28156472
S  2.067172  0.086102  0.095867
O  1.141863  0.408454  1.168725
O  3.454066  0.440419  0.175865
O  1.920444  -1.502462  -0.066489
O  1.515096  0.640657  -1.267021
H  2.638121  -1.838296  -0.624340
H  0.525019  0.563769  -1.299199
S  -2.067194  0.086152  -0.095820
O  -3.454215  0.440019  -0.175704
O  -1.142000  0.409562  -1.168430
O  -1.515265  0.640037  1.267468
O  -1.919946  -1.502438  0.065663
H  -0.525136  0.563344  1.299512
H  -2.637996  -1.838864  0.622674
