14
-1400.28156474
S  -2.066983  0.086115  -0.095893
O  -1.141787  0.408303  -1.168878
O  -3.453915  0.440265  -0.175936
O  -1.920006  -1.502394  0.066841
O  -1.514797  0.641025  1.266882
H  -2.637113  -1.838136  0.625471
H  -0.524647  0.564067  1.298916
S  2.067046  0.086164  0.095786
O  3.454144  0.439773  0.175295
O  1.142131  0.410278  1.168471
O  1.515106  0.639526  -1.267737
O  1.919156  -1.502459  -0.064814
H  0.525015  0.562326  -1.299865
H  2.635473  -1.839273  -0.623816
