14
-1400.27367442
S  2.127989  0.083244  0.075805
O  3.428823  -0.394422  -0.294089
O  1.859830  0.854758  1.256726
O  1.507040  0.760176  -1.207050
O  1.135850  -1.219344  0.252899
H  0.576526  1.038188  -1.021128
H  1.333340  -1.889803  -0.418482
S  -1.948272  -0.026992  -0.132586
O  -2.240762  -1.043083  -1.100327
O  -1.088713  1.096920  -0.490479
O  -3.326862  0.544917  0.397773
O  -1.415612  -0.656140  1.224803
H  -3.177926  1.342346  0.928894
H  -0.484169  -0.941031  1.097155
