14
-1400.27450377
S  -2.151869  -0.067087  0.077607
O  -3.439993  0.372418  -0.375706
O  -1.913144  -0.698309  1.343386
O  -1.504872  -0.884470  -1.106794
O  -1.158618  1.250701  0.121466
H  -0.581985  -1.143560  -0.867466
H  -1.366852  1.845786  -0.614122
S  2.048605  -0.140297  0.042422
O  3.350316  -0.484720  0.532924
O  1.074345  -1.149245  -0.320686
O  1.414132  0.868444  1.078581
O  2.192443  0.761485  -1.281174
H  0.472477  1.048893  0.854427
H  3.011704  1.276590  -1.229290
