14
-1400.28156469
S  2.067460  0.086193  0.095746
O  3.454776  0.439142  0.174968
O  1.142755  0.411185  1.168327
O  1.515681  0.639230  -1.267927
O  1.918924  -1.502472  -0.064250
H  0.525501  0.562930  -1.299955
H  2.635829  -1.839909  -0.622117
S  -2.067322  0.086174  -0.095830
O  -3.454156  0.440869  -0.175468
O  -1.142104  0.408984  -1.168625
O  -1.514950  0.639759  1.267421
O  -1.920988  -1.502459  0.065599
H  -0.524804  0.563617  1.299159
H  -2.638259  -1.838415  0.623899
