14
-1400.27450363
S  -2.151827  -0.067184  0.077450
O  -3.439667  0.372652  -0.376427
O  -1.914088  -0.700012  1.342630
O  -1.503946  -0.883055  -1.107387
O  -1.158905  1.250759  0.123566
H  -0.580928  -1.142086  -0.868469
H  -1.366689  1.846471  -0.611652
S  2.048703  -0.140245  0.042421
O  1.074769  -1.150122  -0.318982
O  3.351368  -0.483347  0.531275
O  2.190083  0.761188  -1.281606
O  1.414766  0.868199  1.079184
H  3.009684  1.275944  -1.231766
H  0.472890  1.048439  0.855924
