14
-1400.27912721
S  1.962111  -0.115791  0.065492
O  2.192077  -1.528135  0.070289
O  1.123126  0.492272  1.099485
O  3.389185  0.579318  0.110010
O  1.459769  0.405670  -1.336962
H  3.294499  1.541050  0.181768
H  0.467585  0.463996  -1.340034
S  -2.078049  0.096475  -0.081386
O  -3.487495  0.354357  -0.105772
O  -1.199254  0.596797  -1.125507
O  -1.539429  0.546516  1.326608
O  -1.802027  -1.482407  -0.087726
H  -0.546130  0.523685  1.334304
H  -2.448566  -1.934772  0.474865
