14
-1400.27915964
S  2.042469  0.130277  -0.024125
O  2.608018  1.380372  0.381145
O  1.070375  0.086093  -1.118981
O  3.255490  -0.822898  -0.400285
O  1.441480  -0.682396  1.188725
H  2.927202  -1.663167  -0.753999
H  0.473161  -0.479024  1.277459
S  -2.105566  0.073580  0.110873
O  -3.426835  0.587824  0.322507
O  -1.143590  -0.008962  1.196819
O  -2.192391  -1.432560  -0.438381
O  -1.477590  0.861158  -1.095427
H  -2.961315  -1.518754  -1.021765
H  -0.509165  0.650173  -1.178626
