14
-1400.28156464
S  2.066833  -0.086208  -0.095842
O  1.141526  -0.407468  -1.169047
O  3.453386  -0.441942  -0.175524
O  1.921703  1.502478  0.066521
O  1.513713  -0.640195  1.266922
H  2.638476  1.837374  0.626089
H  0.523378  -0.564593  1.297914
S  -2.067157  -0.086218  0.095640
O  -3.454783  -0.437987  0.173936
O  -1.143208  -0.413449  1.168223
O  -1.515410  -0.638125  -1.268586
O  -1.916846  1.502450  -0.062273
H  -0.525263  -0.561279  -1.300628
H  -2.632059  1.841215  -0.621515
