14
-1400.28156467
S  2.067133  -0.086166  -0.095863
O  1.141727  -0.407659  -1.168931
O  3.453746  -0.441631  -0.175760
O  1.921662  1.502471  0.066552
O  1.514514  -0.640303  1.266947
H  2.638938  1.837628  0.625330
H  0.524462  -0.562814  1.299361
S  -2.067319  -0.086230  0.095715
O  -1.142773  -0.411280  1.168397
O  -3.454535  -0.439619  0.174641
O  -1.919206  1.502466  -0.063850
O  -1.515106  -0.638750  -1.268012
H  -2.635688  1.839747  -0.622365
H  -0.524964  -0.561775  -1.299841
