14
-1400.27450379
S  -2.048296  -0.140440  -0.041778
O  -1.073791  -1.147313  0.326373
O  -3.349665  -0.487678  -0.531110
O  -2.192933  0.767289  1.277558
O  -1.413689  0.863535  -1.082468
H  -3.011937  1.282503  1.222753
H  -0.472082  1.045221  -0.858841
S  2.151560  -0.067591  -0.077236
O  3.439861  0.373661  0.373924
O  1.912597  -0.704784  -1.339998
O  1.504173  -0.878958  1.110959
O  1.158777  1.250437  -0.127379
H  0.580943  -1.138273  0.872858
H  1.368204  1.849543  0.604584
