14
-1400.27912689
S  -1.961519  0.115854  0.065265
O  -2.186894  1.528914  0.066370
O  -1.123845  -0.491981  1.100382
O  -3.390702  -0.574699  0.112279
O  -1.461717  -0.411308  -1.335976
H  -3.298843  -1.536655  0.184896
H  -0.469656  -0.469853  -1.340365
S  2.077664  -0.096758  -0.081216
O  1.198396  -0.598777  -1.123983
O  3.486935  -0.355695  -0.105192
O  1.802946  1.482364  -0.091235
O  1.539144  -0.543049  1.327924
H  2.450164  1.935288  0.470152
H  0.545911  -0.520467  1.335986
