14
-1400.28156469
S  2.066858  0.086115  0.095842
O  3.453843  0.440253  0.175584
O  1.141915  0.408439  1.168979
O  1.514357  0.640989  -1.266750
O  1.919942  -1.502374  -0.066793
H  0.524167  0.563728  -1.298593
H  2.637935  -1.838281  -0.624194
S  -2.066930  0.086033  -0.095842
O  -3.454104  0.439298  -0.175920
O  -1.141797  0.409613  -1.168562
O  -1.515410  0.640580  1.267370
O  -1.918756  -1.502373  0.065927
H  -0.525331  0.563870  1.299692
H  -2.635545  -1.839070  0.624416
