14
-1400.27912712
S  1.961625  0.115784  -0.065378
O  2.189768  1.528426  -0.068787
O  1.123197  -0.492074  -1.099835
O  3.389428  -0.577450  -0.110711
O  1.460031  -0.407942  1.336605
H  3.296072  -1.539204  -0.183873
H  0.467861  -0.466624  1.339769
S  -2.077675  -0.096635  0.081134
O  -3.487204  -0.354194  0.104775
O  -1.199192  -0.599382  1.124419
O  -1.538929  -0.543776  -1.327671
O  -1.801363  1.482159  0.090960
H  -0.545581  -0.522399  -1.334809
H  -2.447441  1.935712  -0.471217
