14
-1400.28148668
S  1.962972  -0.076166  -0.108487
O  0.867399  0.055774  -1.065551
O  3.230881  -0.623744  -0.489140
O  2.145705  1.423128  0.424435
O  1.447983  -0.859543  1.146271
H  2.969013  1.498650  0.930563
H  0.474281  -0.671845  1.285365
S  -2.015457  -0.010931  0.109567
O  -3.425321  0.020664  0.320630
O  -1.110969  -0.270972  1.229836
O  -1.715263  -1.076347  -1.032820
O  -1.591320  1.366421  -0.561838
H  -0.761587  -1.065479  -1.246841
H  -0.634709  1.349180  -0.760953
