14
-1400.27549242
S  -2.034075  0.113266  0.061303
O  -2.340864  1.510301  0.070561
O  -1.160267  -0.453531  1.089800
O  -3.420035  -0.661091  0.103560
O  -1.503867  -0.374028  -1.345062
H  -3.271870  -1.615109  0.184755
H  -0.510806  -0.370068  -1.345685
S  2.034107  0.113300  -0.061285
O  1.160168  -0.452858  -1.090029
O  2.341458  1.510210  -0.070095
O  1.503654  -0.374176  1.344939
O  3.419792  -0.661561  -0.103674
H  0.510586  -0.370495  1.345348
H  3.271256  -1.615533  -0.184724
