14
-1400.26847027
S  2.276123  -0.044055  -0.131745
O  1.429873  0.042008  -1.304628
O  3.673114  -0.358227  -0.206856
O  2.078152  1.361781  0.607177
O  1.632598  -1.070513  0.899357
H  2.761390  1.475207  1.285015
H  0.657524  -1.073535  0.807550
S  -2.236622  0.113275  0.126653
O  -2.684725  -0.485348  1.354990
O  -1.971408  1.512489  -0.038699
O  -0.920638  -0.724733  -0.279849
O  -3.241688  -0.288103  -1.053842
H  -0.383777  -0.268031  -0.966536
H  -3.629373  -1.156006  -0.865753
