14
-1400.26741855
S  -2.398418  0.044393  -0.144889
O  -3.661083  0.663313  -0.429097
O  -1.494301  -0.405842  -1.181060
O  -1.621181  1.028745  0.835132
O  -2.633160  -1.246835  0.775669
H  -0.672705  0.786344  0.863596
H  -3.397549  -1.099411  1.352547
S  2.459234  -0.112854  0.085531
O  2.854764  -1.362311  -0.493808
O  2.855222  0.343767  1.389763
O  2.824569  1.013582  -0.995126
O  0.849379  -0.036497  0.095566
H  2.872969  1.876177  -0.556757
H  0.430547  -0.451122  -0.685965
