14
-1400.28156472
S  -2.066780  -0.086133  0.095799
O  -1.142055  -0.408459  1.169252
O  -3.453868  -0.439877  0.175505
O  -1.919414  1.502347  -0.066976
O  -1.514197  -0.641229  -1.266606
H  -2.636681  1.838204  -0.625344
H  -0.523970  -0.564480  -1.298283
S  2.066845  -0.086153  -0.095747
O  1.142307  -0.410435  -1.168751
O  3.453986  -0.439726  -0.174793
O  1.918785  1.502426  0.064649
O  1.514501  -0.639347  1.267647
H  2.634932  1.839418  0.623765
H  0.524319  -0.562169  1.299618
