14
-1400.27912717
S  -2.078123  -0.096660  0.081231
O  -1.199472  -0.598845  1.124506
O  -3.487596  -0.354627  0.104873
O  -1.802400  1.482253  0.090472
O  -1.539231  -0.544058  -1.327514
H  -2.449390  1.935521  -0.470876
H  -0.545917  -0.521501  -1.334881
S  1.962177  0.115914  -0.065360
O  2.191463  1.528381  -0.067682
O  1.123100  -0.490578  -1.100165
O  3.389481  -0.578436  -0.111367
O  1.460495  -0.408491  1.336355
H  3.295315  -1.540184  -0.183638
H  0.468401  -0.466680  1.339626
