14
-1400.27912721
S  -2.078189  -0.096639  0.081249
O  -1.199174  -0.598474  1.124392
O  -3.487541  -0.355131  0.105224
O  -1.802880  1.482338  0.090422
O  -1.539468  -0.543960  -1.327607
H  -2.449346  1.935336  -0.471755
H  -0.546193  -0.520952  -1.335223
S  1.962342  0.115922  -0.065345
O  1.123073  -0.490125  -1.100257
O  2.192452  1.528251  -0.067678
O  1.460074  -0.408124  1.336238
O  3.389301  -0.579241  -0.111157
H  0.467886  -0.466233  1.339078
H  3.294525  -1.540947  -0.183191
