14
-1400.27915922
S  -2.042513  -0.130125  -0.024401
O  -1.070591  -0.081523  -1.119281
O  -2.606195  -1.382102  0.377676
O  -1.442346  0.679870  1.190541
O  -3.256989  0.822258  -0.397969
H  -0.473255  0.478758  1.277314
H  -2.929954  1.662895  -0.751951
S  2.105639  -0.073346  0.111007
O  3.425807  -0.589727  0.324021
O  1.143572  0.013334  1.196563
O  2.195327  1.431475  -0.441150
O  1.476515  -0.862429  -1.093922
H  2.963920  1.514926  -1.025366
H  0.508481  -0.650292  -1.177540
