14
-1400.26847023
S  2.236535  -0.113297  0.126558
O  1.972713  -1.512659  -0.039866
O  2.682496  0.485012  1.355862
O  3.242996  0.289636  -1.052219
O  0.920530  0.723676  -0.281264
H  3.630510  1.157260  -0.862487
H  0.384105  0.266397  -0.967888
S  -2.276303  0.043910  -0.131704
O  -3.673483  0.357302  -0.206088
O  -1.430899  -0.043097  -1.305214
O  -1.632498  1.071827  0.897708
O  -2.077001  -1.360921  0.608586
H  -0.657455  1.074616  0.805732
H  -2.759713  -1.474289  1.286955
