14
-1400.27912706
S  -2.078256  -0.096595  0.081364
O  -3.487436  -0.355893  0.105313
O  -1.199156  -0.596720  1.125248
O  -1.538927  -0.545239  -1.326859
O  -1.803859  1.482555  0.088749
H  -0.545637  -0.522243  -1.334142
H  -2.450134  1.934472  -0.474516
S  1.962377  0.115893  -0.065385
O  1.123874  -0.490743  -1.100613
O  2.191741  1.528354  -0.067967
O  1.460026  -0.408181  1.336182
O  3.389608  -0.578726  -0.110445
H  0.467705  -0.463878  1.339800
H  3.295169  -1.540377  -0.183665
