14
-1400.28268803
S  -1.953659  -0.023029  0.100994
O  -3.369696  -0.011541  0.269962
O  -1.067633  -0.267099  1.241021
O  -1.610438  -1.070844  -1.030669
O  -1.532386  1.373912  -0.536357
H  -0.635885  -1.159172  -1.125326
H  -0.568937  1.515729  -0.455367
S  1.950781  -0.110206  -0.076646
O  3.378117  -0.055655  -0.157012
O  1.148796  -0.859576  -1.022044
O  1.556019  -0.478235  1.393808
O  1.345242  1.399208  -0.223647
H  0.560457  -0.501114  1.464010
H  1.906255  2.034964  0.246605
