14
-1400.27912720
S  -1.961905  0.115887  0.065308
O  -2.191259  1.528337  0.067584
O  -1.123119  -0.490555  1.100436
O  -3.389194  -0.578614  0.111005
O  -1.459763  -0.408417  -1.336174
H  -3.294823  -1.540316  0.183630
H  -0.467561  -0.466843  -1.339127
S  2.077907  -0.096673  -0.081176
O  1.199337  -0.599531  -1.124220
O  3.487378  -0.354453  -0.104767
O  1.801700  1.482167  -0.091373
O  1.539106  -0.543334  1.327838
H  2.447096  1.935756  0.471558
H  0.545766  -0.520839  1.335198
