14
-1400.27912717
S  -2.077982  -0.096528  0.081333
O  -1.199254  -0.597386  1.125225
O  -3.487495  -0.354166  0.105570
O  -1.801949  1.482342  0.088233
O  -1.539375  -0.546219  -1.326756
H  -2.450009  1.935056  -0.472330
H  -0.546096  -0.523558  -1.334398
S  1.962072  0.115797  -0.065570
O  1.123188  -0.492641  -1.099369
O  2.191698  1.528199  -0.070721
O  1.459914  -0.405562  1.337049
O  3.389286  -0.578948  -0.109890
H  0.467736  -0.463966  1.340154
H  3.294828  -1.540800  -0.180359
