14
-1400.28156445
S  -2.067077  -0.086261  0.095653
O  -3.454574  -0.438522  0.174012
O  -1.143114  -0.412782  1.168447
O  -1.515237  -0.638310  -1.268307
O  -1.917415  1.502429  -0.062720
H  -0.525258  -0.559810  -1.301407
H  -2.633156  1.840709  -0.621592
S  2.066863  -0.086193  -0.095869
O  1.141458  -0.407697  -1.168888
O  3.453495  -0.441482  -0.175824
O  1.921188  1.502471  0.066622
O  1.514218  -0.640433  1.266871
H  2.637698  1.837468  0.626488
H  0.523984  -0.564497  1.298273
