14
-1400.28156475
S  2.066851  -0.086138  -0.095809
O  1.141920  -0.409169  -1.168803
O  3.453916  -0.439903  -0.175508
O  1.919382  1.502408  0.066070
O  1.514673  -0.640507  1.267148
H  2.636794  1.838719  0.623969
H  0.524475  -0.563845  1.299218
S  -2.066881  -0.086151  0.095769
O  -3.454060  -0.439436  0.175477
O  -1.141993  -0.410038  1.168550
O  -1.515058  -0.640041  -1.267541
O  -1.918775  1.502407  -0.065340
H  -0.524922  -0.563318  -1.299666
H  -2.635897  1.839294  -0.623294
