14
-1400.28156472
S  -2.066986  -0.086159  0.095846
O  -1.142051  -0.408702  1.168989
O  -3.453912  -0.440428  0.175476
O  -1.920037  1.502394  -0.066277
O  -1.514469  -0.640483  -1.267015
H  -2.636753  1.838279  -0.625326
H  -0.524272  -0.563755  -1.298725
S  2.067055  -0.086168  -0.095805
O  3.454124  -0.439902  -0.175058
O  1.142283  -0.410165  -1.168653
O  1.514912  -0.639410  1.267667
O  1.919220  1.502479  0.064714
H  0.524763  -0.562672  1.299623
H  2.634601  1.839107  0.625033
