14
-1400.26847028
S  -2.276191  0.044001  -0.131684
O  -1.431282  -0.042156  -1.305505
O  -3.673444  0.357471  -0.205210
O  -2.076715  -1.361466  0.607590
O  -1.631975  1.071147  0.898205
H  -2.759280  -1.475026  1.286080
H  -0.656958  1.074030  0.805704
S  2.236453  -0.113412  0.126561
O  2.682264  0.484274  1.356197
O  1.972351  -1.512591  -0.040697
O  0.920449  0.724212  -0.281034
O  3.243026  0.289905  -1.051944
H  0.384605  0.267444  -0.968370
H  3.630047  1.157762  -0.862263
