14
-1400.28156468
S  2.067207  -0.086103  -0.095863
O  1.142095  -0.409033  -1.168663
O  3.454252  -0.439916  -0.175792
O  1.919826  1.502431  0.066227
O  1.515279  -0.640610  1.267195
H  2.637574  1.838703  0.623709
H  0.525232  -0.563872  1.299537
S  -2.067232  -0.086079  0.095841
O  -3.454383  -0.439482  0.175625
O  -1.142373  -0.409215  1.168820
O  -1.515289  -0.640950  -1.267030
O  -1.919403  1.502416  -0.066362
H  -0.525241  -0.563925  -1.299404
H  -2.637202  1.838887  -0.623655
