14
-1400.28156475
S  2.066939  -0.086136  -0.095793
O  1.141908  -0.409705  -1.168575
O  3.453998  -0.439964  -0.175517
O  1.919420  1.502447  0.065364
O  1.515004  -0.639877  1.267526
H  2.636082  1.839013  0.624073
H  0.524830  -0.563469  1.299680
S  -2.066962  -0.086181  0.095768
O  -3.454069  -0.439906  0.175110
O  -1.142164  -0.410072  1.168640
O  -1.514714  -0.639645  -1.267562
O  -1.919365  1.502430  -0.065065
H  -0.524457  -0.563322  -1.299309
H  -2.636225  1.839186  -0.623397
