14
-1400.27912712
S  2.078267  0.096666  0.081172
O  3.487314  0.356966  0.105171
O  1.198618  0.597810  1.124154
O  1.539016  0.543098  -1.327695
O  1.804928  -1.482580  0.090813
H  0.545711  0.520176  -1.335060
H  2.452358  -1.935079  -0.470631
S  -1.962492  -0.115961  -0.065323
O  -1.123360  0.489583  -1.100617
O  -2.192459  -1.528344  -0.066811
O  -1.460371  0.409148  1.336016
O  -3.389579  0.578824  -0.111502
H  -0.468144  0.466991  1.338949
H  -3.295193  1.540601  -0.183069
