10
-776.558204689
S  0.586532  -0.067510  -0.134560
O  1.781494  -0.851760  -0.296431
O  -0.213952  0.379011  -1.253712
O  -0.341542  -0.824409  0.894873
O  0.966802  1.280181  0.657678
H  -1.289309  -0.538521  0.751808
H  1.692737  1.092223  1.270137
O  -2.693685  0.089296  0.116033
H  -3.436643  -0.481942  -0.096677
H  -2.344227  0.429844  -0.719839
