10
-776.558204791
S  0.586508  -0.067561  -0.134514
O  1.782045  -0.850884  -0.296205
O  -0.214285  0.378174  -1.253787
O  -0.341030  -0.825035  0.894944
O  0.965627  1.280685  0.657521
H  -1.288819  -0.538921  0.753000
H  1.692996  1.093683  1.268558
O  -2.693204  0.089231  0.115907
H  -3.438241  -0.479571  -0.096030
H  -2.343282  0.428426  -0.720335
