10
-776.558138163
S  -0.590948  0.094048  -0.113074
O  -1.845651  0.793044  -0.043585
O  0.190103  0.001917  -1.326490
O  0.321995  0.639781  1.053236
O  -0.839330  -1.437807  0.326220
H  1.276765  0.428032  0.844841
H  -1.562880  -1.465646  0.968983
O  2.694841  0.046568  0.059445
H  3.214092  -0.731275  0.280444
H  2.351523  -0.083908  -0.835690
