10
-776.558204708
S  0.586668  -0.067711  -0.134429
O  1.781912  -0.851755  -0.294958
O  -0.213882  0.376770  -1.254339
O  -0.341382  -0.823467  0.895989
O  0.966041  1.281404  0.655778
H  -1.288990  -0.537114  0.753069
H  1.692347  1.094872  1.268218
O  -2.693992  0.089439  0.115881
H  -2.343020  0.428577  -0.719958
H  -3.436605  -0.482087  -0.097267
