10
-776.542064271
S  0.575660  0.010943  0.126042
O  -0.539371  0.915093  -0.012093
O  0.883649  -0.700309  1.333770
O  0.426945  -1.032533  -1.078535
O  1.908474  0.802992  -0.273744
H  0.913233  -1.843232  -0.865617
H  1.693450  1.491356  -0.921174
O  -3.376855  -0.036088  -0.080005
H  -3.748113  0.237080  0.761988
H  -2.491862  0.346470  -0.107017
