10
-776.558204738
S  0.586534  -0.067500  -0.134556
O  1.782060  -0.850747  -0.296493
O  -0.214425  0.378421  -1.253551
O  -0.340998  -0.825384  0.894829
O  0.965567  1.280535  0.657862
H  -1.288695  -0.538897  0.753046
H  1.693437  1.093514  1.268288
O  -2.693087  0.089350  0.115778
H  -2.343725  0.427457  -0.721120
H  -3.438503  -0.479476  -0.094726
