10
-776.542064256
S  0.575497  0.011028  0.126037
O  -0.539022  0.915603  -0.012942
O  0.882562  -0.699835  1.334188
O  0.426993  -1.032808  -1.078363
O  1.908950  0.802220  -0.273440
H  0.912833  -1.843625  -0.864907
H  1.694583  1.490304  -0.921374
O  -3.376576  -0.036054  -0.079999
H  -2.492016  0.347354  -0.108572
H  -3.746607  0.236512  0.762714
