10
-776.556142499
S  -0.567989  -0.118792  -0.083527
O  -1.357610  -1.313022  -0.031873
O  0.237119  0.208683  -1.251843
O  -1.590061  1.080865  0.192840
O  0.366239  -0.012305  1.191115
H  -1.139372  1.930296  0.081626
H  1.321391  0.006251  0.894410
O  2.737757  0.092907  0.043149
H  3.382942  -0.619075  0.066864
H  2.375323  0.126175  -0.853573
