10
-776.558138601
S  0.590732  -0.093606  -0.113318
O  1.846231  -0.791455  -0.046909
O  -0.190968  0.002184  -1.326151
O  -0.321219  -0.644804  1.051050
O  0.837473  1.436845  0.331423
H  -1.276061  -0.431475  0.844618
H  1.562860  1.463523  0.972135
O  -2.693511  -0.046772  0.059045
H  -3.214536  0.728912  0.283220
H  -2.348028  0.088753  -0.834545
