10
-776.558204665
S  0.586613  0.067798  0.134274
O  1.783291  0.850080  0.293363
O  -0.214012  -0.374284  1.255079
O  -0.340799  0.824214  -0.895985
O  0.963412  -1.282659  -0.654803
H  -1.288617  0.538278  -0.753959
H  1.691242  -1.098352  -1.266105
O  -2.693031  -0.089743  -0.115751
H  -2.342461  -0.426549  0.721190
H  -3.436848  0.480994  0.095263
