10
-776.558138414
S  0.590866  -0.093711  -0.113258
O  1.845494  -0.793068  -0.046907
O  -0.191253  0.002202  -1.325796
O  -0.321541  -0.642987  1.051835
O  0.839491  1.436739  0.330403
H  -1.276102  -0.429658  0.844464
H  1.564789  1.462982  0.971223
O  -2.694671  -0.046870  0.058991
H  -3.214270  0.729932  0.282677
H  -2.348427  0.087987  -0.834432
