10
-776.558204486
S  0.586663  0.067687  0.134468
O  1.781674  0.852149  0.295237
O  -0.214116  -0.376998  1.254159
O  -0.341326  0.823014  -0.896258
O  0.966621  -1.281314  -0.655519
H  -1.289083  0.537519  -0.752689
H  1.691373  -1.094208  -1.269639
O  -2.694083  -0.089520  -0.115919
H  -2.343771  -0.428849  0.720109
H  -3.435276  0.483903  0.097136
