10
-776.558204778
S  -0.586406  -0.067578  0.134448
O  0.214340  0.378769  1.253585
O  -1.781574  -0.851475  0.296506
O  -0.966424  1.280283  -0.657751
O  0.341557  -0.824704  -0.894838
H  -1.694916  1.093114  -1.267384
H  1.289378  -0.538291  -0.752614
O  2.692978  0.089301  -0.115918
H  3.438033  -0.479504  0.095881
H  2.342984  0.428531  0.720283
