10
-776.558138529
S  -0.590568  -0.093855  0.113187
O  -1.845270  -0.793094  0.046374
O  0.191601  0.001139  1.325824
O  0.321639  -0.642006  -1.052305
O  -0.839514  1.436874  -0.329520
H  1.276534  -0.429438  -0.844852
H  -1.566496  1.463486  -0.968431
O  2.693462  -0.046591  -0.059067
H  2.348372  0.088460  0.834738
H  3.215326  0.728610  -0.282898
