10
-776.558204770
S  0.586547  -0.067559  -0.134541
O  -0.214005  0.378036  -1.253996
O  1.782454  -0.850329  -0.295865
O  0.964902  1.280778  0.657708
O  -0.341033  -0.825478  0.894557
H  1.691380  1.093672  1.269795
H  -1.288834  -0.539226  0.752623
O  -2.693007  0.089155  0.115905
H  -3.438416  -0.479262  -0.095803
H  -2.343375  0.428451  -0.720420
