10
-776.558138631
S  -0.590547  0.093569  -0.113316
O  -1.845298  0.792954  -0.048197
O  0.191544  -0.004164  -1.325841
O  0.321591  0.644580  1.050860
O  -0.839464  -1.436178  0.332621
H  1.276473  0.431304  0.844173
H  -1.565932  -1.461415  0.972165
O  2.693573  0.046774  0.058921
H  2.347591  -0.090402  -0.834251
H  3.215056  -0.728330  0.284060
