10
-776.558138572
S  0.590672  -0.093597  -0.113319
O  1.845532  -0.792506  -0.047564
O  -0.191245  0.003164  -1.325921
O  -0.321517  -0.644488  1.051121
O  0.838807  1.436529  0.331931
H  -1.276256  -0.430881  0.844384
H  1.565138  1.462460  0.971587
O  -2.693700  -0.046693  0.059001
H  -2.347837  0.088941  -0.834453
H  -3.214803  0.728991  0.283037
