10
-776.558138397
S  -0.590836  -0.093750  0.113207
O  0.190546  0.001067  1.326379
O  -1.845919  -0.792300  0.045595
O  -0.838348  1.437103  -0.329675
O  0.321822  -0.643063  -1.051546
H  -1.562586  1.464101  -0.971657
H  1.276433  -0.429273  -0.844333
O  2.694068  -0.046860  -0.059165
H  2.349410  0.087107  0.834986
H  3.212788  0.730496  -0.283017
