10
-776.542064313
S  0.575519  0.011055  0.126267
O  0.884706  -0.701300  1.333032
O  -0.537783  0.917756  -0.008896
O  1.909232  0.800219  -0.276245
O  0.421697  -1.031560  -1.078428
H  1.694451  1.488596  -0.923740
H  0.906448  -1.843526  -0.866849
O  -3.374010  -0.036270  -0.080028
H  -2.490170  0.349096  -0.104682
H  -3.749771  0.238195  0.759520
