10
-776.558204811
S  0.586472  -0.067632  -0.134479
O  1.781519  -0.851735  -0.296175
O  -0.214273  0.378218  -1.253723
O  -0.341393  -0.824105  0.895369
O  0.966637  1.280586  0.657051
H  -1.289166  -0.537658  0.753335
H  1.694336  1.093374  1.267638
O  -2.693487  0.089395  0.115881
H  -2.343262  0.428254  -0.720367
H  -3.437480  -0.480726  -0.096176
