10
-776.558138538
S  0.590697  0.093748  0.113194
O  1.845830  0.792301  0.046398
O  -0.191068  -0.001313  1.326001
O  -0.321536  0.643207  -1.051766
O  0.838538  -1.436951  -0.330227
H  -1.276339  0.430295  -0.844830
H  1.565439  -1.463711  -0.969215
O  -2.693963  0.046621  -0.059084
H  -2.348367  -0.087695  0.834679
H  -3.214304  -0.729774  -0.282314
