10
-776.558204584
S  0.586453  -0.067079  -0.134765
O  1.781045  -0.851111  -0.300114
O  -0.215078  0.382849  -1.251788
O  -0.340740  -0.826947  0.893354
O  0.967791  1.278049  0.661206
H  -1.288486  -0.541022  0.752054
H  1.696397  1.088627  1.270018
O  -2.694073  0.088873  0.116210
H  -2.343835  0.431250  -0.718572
H  -3.438879  -0.479292  -0.098204
