10
-776.558138101
S  -0.590953  -0.094461  0.112627
O  -1.846547  -0.791370  0.040190
O  0.189707  -0.007945  1.326699
O  0.321837  -0.637201  -1.055062
O  -0.836666  1.439471  -0.321183
H  1.276531  -0.424913  -0.846150
H  -1.560739  1.470836  -0.963168
O  2.693702  -0.046459  -0.059318
H  3.213361  0.731361  -0.279223
H  2.349834  0.082130  0.835900
