10
-776.558204635
S  0.586622  -0.067633  -0.134432
O  -0.214146  0.378094  -1.253731
O  1.781510  -0.852157  -0.295964
O  0.967235  1.280594  0.656575
O  -0.341625  -0.823592  0.895548
H  1.694048  1.093297  1.268195
H  -1.289261  -0.537652  0.752054
O  -2.694275  0.089441  0.116034
H  -3.436810  -0.482020  -0.097498
H  -2.343513  0.429473  -0.719528
