10
-776.558138311
S  -0.590831  -0.094045  0.112912
O  0.190073  -0.004218  1.326771
O  -1.847170  -0.789949  0.042703
O  -0.835076  1.438609  -0.325654
O  0.321277  -0.641602  -1.052938
H  -1.558754  1.468782  -0.968137
H  1.276197  -0.429054  -0.845498
O  2.692902  -0.046724  -0.059223
H  2.348394  0.084863  0.835346
H  3.211403  0.731198  -0.281581
