10
-776.558138533
S  0.590765  0.093782  0.113167
O  1.846440  0.791209  0.045584
O  -0.190835  0.000174  1.326220
O  -0.321118  0.643275  -1.052047
O  0.836980  -1.437536  -0.329116
H  -1.276006  0.430698  -0.845126
H  1.561665  -1.465297  -0.970574
O  -2.693371  0.046767  -0.059030
H  -2.348443  -0.087870  0.834900
H  -3.214215  -0.729169  -0.282767
