10
-776.558204625
S  0.586613  0.067627  0.134445
O  -0.213931  -0.376353  1.254582
O  1.782677  0.850607  0.294637
O  0.964598  -1.281599  -0.656153
O  -0.341005  0.824513  -0.895386
H  1.690827  -1.095616  -1.268865
H  -1.288808  0.538721  -0.752883
O  -2.693404  -0.089577  -0.115938
H  -3.435924  0.482439  0.096251
H  -2.343376  -0.428319  0.720437
