10
-776.558204646
S  0.586622  0.067674  0.134456
O  1.782209  0.851329  0.294862
O  -0.214094  -0.376473  1.254382
O  -0.341083  0.823697  -0.895924
O  0.965498  -1.281570  -0.655696
H  -1.288910  0.538146  -0.753004
H  1.691099  -1.095153  -1.269020
O  -2.693566  -0.089493  -0.115869
H  -3.436183  0.482468  0.096101
H  -2.343670  -0.428172  0.720580
