10
-776.558138407
S  0.590798  -0.093874  -0.113110
O  -0.190835  -0.000774  -1.326203
O  1.846253  -0.791527  -0.045115
O  0.837273  1.437648  0.328327
O  -0.321331  -0.642488  1.052438
H  1.562332  1.465744  0.969336
H  -1.276047  -0.429410  0.845080
O  -2.693718  -0.046784  0.059110
H  -3.212755  0.730783  0.281459
H  -2.347429  0.086251  -0.834580
