10
-776.558204809
S  -0.586501  0.067628  -0.134462
O  -1.782000  0.851099  -0.295651
O  0.214201  -0.377506  -1.253983
O  0.341223  0.824546  0.895263
O  -0.965589  -1.281037  0.656836
H  1.289071  0.538431  0.752989
H  -1.692745  -1.094304  1.268204
O  2.693026  -0.089350  0.115850
H  2.343142  -0.428274  -0.720511
H  3.437656  0.480082  -0.095797
