10
-776.542064284
S  0.575574  0.011001  0.126062
O  0.883504  -0.699981  1.333956
O  -0.539353  0.915218  -0.012154
O  1.908497  0.802738  -0.273912
O  0.426758  -1.032667  -1.078381
H  1.693815  1.490139  -0.922473
H  0.912415  -1.843616  -0.865009
O  -3.376260  -0.036152  -0.080080
H  -2.491554  0.347127  -0.106154
H  -3.749017  0.237091  0.761207
