10
-776.558138508
S  0.590714  0.093820  0.113122
O  1.846798  0.790454  0.045051
O  -0.190656  0.000969  1.326413
O  -0.321075  0.643560  -1.051934
O  0.836023  -1.437730  -0.328936
H  -1.276081  0.431139  -0.845159
H  1.561954  -1.466189  -0.968950
O  -2.693123  0.046652  -0.059105
H  -2.347896  -0.087392  0.834810
H  -3.213141  -0.729920  -0.282564
