10
-776.542057328
S  0.588940  0.008861  0.131027
O  0.989163  -0.692043  1.317595
O  -0.563110  0.873097  0.057829
O  1.869116  0.846809  -0.340751
O  0.408760  -1.038342  -1.066235
H  1.595058  1.526262  -0.975172
H  0.941273  -1.828071  -0.887890
O  -3.411456  -0.038905  -0.080793
H  -2.509475  0.302570  -0.086431
H  -3.789670  0.252539  0.751902
