10
-776.542063951
S  -0.576241  -0.010897  0.125887
O  -0.885798  0.695671  1.335951
O  0.543511  -0.908400  -0.016618
O  -1.905529  -0.809301  -0.273150
O  -0.435676  1.036240  -1.076583
H  -1.688109  -1.494370  -0.923271
H  -0.928056  1.842772  -0.861845
O  3.382144  0.036707  -0.079909
H  3.751436  -0.239790  0.761843
H  2.495378  -0.341597  -0.108452
