10
-776.558204567
S  0.586650  0.067762  0.134400
O  1.782047  0.851765  0.294563
O  -0.214092  -0.375990  1.254442
O  -0.341268  0.823003  -0.896372
O  0.966084  -1.281805  -0.654910
H  -1.289002  0.537445  -0.752922
H  1.690888  -1.095314  -1.269173
O  -2.693826  -0.089606  -0.115848
H  -2.343856  -0.428214  0.720615
H  -3.435979  0.482963  0.096079
