10
-776.558204604
S  0.586664  -0.067612  -0.134452
O  -0.213957  0.377834  -1.253961
O  1.781864  -0.851753  -0.295619
O  0.966542  1.280809  0.656588
O  -0.341565  -0.823953  0.895334
H  1.692432  1.093564  1.269319
H  -1.289134  -0.537756  0.751923
O  -2.694115  0.089382  0.116026
H  -3.436483  -0.482306  -0.097445
H  -2.343599  0.429728  -0.719500
