10
-776.558138548
S  0.590703  0.093781  0.113164
O  1.846239  0.791423  0.045900
O  -0.190886  -0.000397  1.326219
O  -0.321182  0.643474  -1.051809
O  0.837368  -1.437331  -0.329684
H  -1.276069  0.430774  -0.845121
H  1.563105  -1.464738  -0.969977
O  -2.693532  0.046689  -0.059060
H  -3.214240  -0.729359  -0.282723
H  -2.348109  -0.088046  0.834671
