10
-776.542064229
S  0.575660  0.011099  0.126096
O  0.883566  -0.699439  1.334214
O  -0.539193  0.915431  -0.012445
O  1.908678  0.802405  -0.274441
O  0.426602  -1.033175  -1.077969
H  1.693816  1.490028  -0.922703
H  0.911762  -1.844249  -0.863944
O  -3.376575  -0.036244  -0.079996
H  -3.749184  0.238519  0.760841
H  -2.491586  0.346297  -0.106627
