10
-776.558138513
S  -0.590799  -0.093780  0.113172
O  -1.846060  -0.791948  0.045501
O  0.190760  0.000315  1.326239
O  0.321537  -0.642845  -1.051897
O  -0.837848  1.437323  -0.329172
H  1.276299  -0.429642  -0.844742
H  -1.562423  1.464740  -0.970767
O  2.693604  -0.046794  -0.059083
H  3.214256  0.729272  -0.282828
H  2.348701  0.087715  0.834889
