10
-776.558138603
S  -0.590659  0.093644  -0.113296
O  -1.845691  0.792367  -0.046989
O  0.191316  -0.002210  -1.325974
O  0.321367  0.643847  1.051438
O  -0.838590  -1.436763  0.330975
H  1.276197  0.430703  0.844774
H  -1.564360  -1.463158  0.971265
O  2.693538  0.046725  0.059047
H  2.348087  -0.088996  -0.834527
H  3.215102  -0.728585  0.283235
