10
-776.558138464
S  -0.590832  -0.093859  0.113117
O  0.190648  -0.000976  1.326340
O  -1.846195  -0.791776  0.044680
O  -0.837505  1.437673  -0.327991
O  0.321511  -0.642091  -1.052359
H  -1.561902  1.465845  -0.969752
H  1.276275  -0.429010  -0.844985
O  2.693544  -0.046781  -0.059147
H  2.348745  0.087049  0.834963
H  3.214173  0.729472  -0.282279
