10
-776.558204727
S  0.586577  -0.067525  -0.134552
O  1.781920  -0.850995  -0.296438
O  -0.214312  0.378271  -1.253606
O  -0.340987  -0.825042  0.895163
O  0.965714  1.280690  0.657540
H  -1.288713  -0.538712  0.753257
H  1.692747  1.093507  1.268896
O  -2.693197  0.089292  0.115682
H  -2.343778  0.427408  -0.721176
H  -3.438589  -0.479545  -0.094881
