10
-776.558138529
S  -0.590765  -0.093251  0.113609
O  -1.845329  -0.793010  0.050354
O  0.192075  0.006671  1.325433
O  0.320710  -0.646319  -1.050401
O  -0.839766  1.435527  -0.334926
H  1.275549  -0.433427  -0.844734
H  -1.564884  1.459716  -0.976032
O  2.694390  -0.047068  -0.058661
H  3.217166  0.726710  -0.285239
H  2.347772  0.092616  0.833854
