10
-776.558138492
S  -0.590835  -0.093781  0.113160
O  0.190370  0.000165  1.326472
O  -1.846430  -0.791361  0.045269
O  -0.837239  1.437344  -0.329588
O  0.321502  -0.643430  -1.051591
H  -1.563495  1.465127  -0.969253
H  1.276313  -0.430373  -0.844684
O  2.694048  -0.046620  -0.059242
H  2.349230  0.086340  0.834974
H  3.213308  0.730624  -0.282154
