10
-776.558204456
S  0.586677  0.067694  0.134468
O  1.781649  0.852196  0.295198
O  -0.213948  -0.377111  1.254207
O  -0.341415  0.823018  -0.896159
O  0.966650  -1.281290  -0.655613
H  -1.289183  0.537575  -0.752474
H  1.691219  -1.094021  -1.269898
O  -2.694149  -0.089509  -0.115933
H  -2.344050  -0.429242  0.720017
H  -3.435122  0.484153  0.097268
