10
-776.555215824
S  -0.561537  0.127605  0.063526
O  -1.277363  1.340361  -0.199248
O  0.225879  -0.038712  1.276744
O  -1.653290  -1.039409  -0.013620
O  0.358224  -0.270792  -1.165261
H  -1.253422  -1.882225  0.244025
H  1.314391  -0.171805  -0.894282
O  2.725776  0.064351  -0.043599
H  2.388397  0.067340  0.862776
H  3.501420  -0.501386  -0.069065
