10
-776.558204141
S  -0.585945  0.066860  -0.134902
O  0.216324  -0.389433  -1.248977
O  -1.777666  0.854095  -0.305315
O  -0.973202  -1.274750  0.664156
O  0.341802  0.826691  0.892735
H  -1.700436  -1.080577  1.273131
H  1.289756  0.539493  0.752545
O  2.694032  -0.088925  0.116369
H  3.434703  0.482978  -0.102521
H  2.340768  -0.433067  -0.716475
