10
-776.558204751
S  0.586644  -0.067666  -0.134482
O  -0.214007  0.377565  -1.253974
O  1.781614  -0.851868  -0.295656
O  0.966484  1.281052  0.656317
O  -0.341332  -0.823688  0.895811
H  1.692409  1.093837  1.269000
H  -1.288991  -0.537557  0.752926
O  -2.693844  0.089328  0.115838
H  -2.343681  0.428572  -0.720282
H  -3.437353  -0.481300  -0.096615
