10
-776.558204727
S  0.586537  -0.067368  -0.134583
O  1.782109  -0.850531  -0.297261
O  -0.214334  0.379563  -1.253251
O  -0.340869  -0.826074  0.894172
O  0.965584  1.279926  0.658856
H  -1.288592  -0.539863  0.752684
H  1.693017  1.092566  1.269675
O  -2.693333  0.089028  0.115905
H  -3.438837  -0.479016  -0.096350
H  -2.343448  0.428908  -0.720048
