10
-776.542063744
S  0.572025  0.011579  0.124162
O  -0.535641  0.920553  -0.039274
O  0.851752  -0.697636  1.339938
O  0.443375  -1.034635  -1.080445
O  1.916469  0.796274  -0.250267
H  0.919203  -1.847870  -0.854033
H  1.718404  1.482761  -0.905057
O  -3.371851  -0.035414  -0.079596
H  -2.490136  0.353576  -0.118725
H  -3.732711  0.233143  0.768368
