10
-776.558204594
S  0.586510  -0.067458  -0.134586
O  -0.214049  0.379348  -1.253570
O  1.781353  -0.851802  -0.296793
O  0.966969  1.280058  0.657847
O  -0.341448  -0.824614  0.894859
H  1.692193  1.091753  1.271048
H  -1.289158  -0.538547  0.752010
O  -2.693794  0.089371  0.116065
H  -2.343788  0.430197  -0.719475
H  -3.435664  -0.482973  -0.097479
