10
-776.558138387
S  0.590902  -0.093864  -0.113080
O  -0.190424  -0.001293  -1.326374
O  1.846696  -0.790865  -0.044719
O  0.836517  1.437836  0.328236
O  -0.321245  -0.642893  1.052261
H  1.561458  1.466361  0.969370
H  -1.276004  -0.430115  0.844968
O  -2.693995  -0.046750  0.059108
H  -3.212486  0.731182  0.281479
H  -2.347785  0.086111  -0.834631
