10
-776.558204666
S  -0.586574  -0.067320  0.134638
O  0.214513  0.379972  1.253028
O  -1.782025  -0.850511  0.297762
O  -0.965852  1.279753  -0.659085
O  0.340679  -0.826228  -0.894203
H  -1.692436  1.091753  -1.270746
H  1.288444  -0.540291  -0.752807
O  2.693547  0.088924  -0.115924
H  2.343116  0.429080  0.719701
H  3.439166  -0.478712  0.097006
