10
-776.558204533
S  0.586613  0.067587  0.134463
O  1.781581  0.851919  0.295909
O  -0.213969  -0.378028  1.253883
O  -0.341363  0.823888  -0.895507
O  0.966731  -1.280810  -0.656537
H  -1.289109  0.538192  -0.752361
H  1.691544  -1.093203  -1.270431
O  -2.694102  -0.089498  -0.115981
H  -2.343530  -0.429344  0.719727
H  -3.435723  0.483194  0.097525
