10
-776.542023746
S  -0.594837  0.009126  -0.128395
O  0.594845  0.814192  -0.002459
O  -0.993654  -0.646377  -1.341452
O  -0.499231  -1.071437  1.048781
O  -1.846105  0.898195  0.325986
H  -1.076867  -1.822546  0.845414
H  -1.559857  1.546820  0.986919
O  3.463256  -0.046141  0.079844
H  2.539815  0.230802  0.053377
H  3.861412  0.311445  -0.716982
