10
-776.558204620
S  0.586616  0.067633  0.134503
O  1.781801  0.851667  0.295457
O  -0.214044  -0.377308  1.254134
O  -0.341273  0.823746  -0.895843
O  0.966193  -1.281128  -0.656192
H  -1.288987  0.538015  -0.752452
H  1.691477  -1.094019  -1.269680
O  -2.693790  -0.089430  -0.115928
H  -2.343269  -0.428932  0.719948
H  -3.436173  0.482435  0.097128
