10
-776.558204752
S  -0.586523  -0.067384  0.134581
O  -1.781835  -0.850943  0.296990
O  0.214037  0.379571  1.253461
O  0.341278  -0.825653  -0.894184
O  -0.965958  1.279850  -0.658810
H  1.289053  -0.539441  -0.752379
H  -1.693548  1.092338  -1.269368
O  2.693250  0.089080  -0.115930
H  3.438676  -0.479236  0.096032
H  2.344015  0.429249  0.720194
