10
-776.542064286
S  0.575553  0.011013  0.126066
O  -0.539276  0.915353  -0.012169
O  0.883482  -0.699904  1.334002
O  0.426569  -1.032738  -1.078286
O  1.908547  0.802588  -0.274047
H  0.912219  -1.843687  -0.864888
H  1.693847  1.490041  -0.922547
O  -3.376082  -0.036257  -0.080034
H  -3.749323  0.237746  0.760791
H  -2.491518  0.347347  -0.106144
