10
-776.558138315
S  0.590860  -0.093534  -0.113327
O  1.845603  -0.792964  -0.048154
O  -0.191324  0.004356  -1.325739
O  -0.321583  -0.644781  1.050692
O  0.839647  1.436206  0.332466
H  -1.276092  -0.430968  0.843694
H  1.564181  1.461509  0.974202
O  -2.694869  -0.046920  0.058990
H  -3.213802  0.730116  0.283333
H  -2.347843  0.088707  -0.834035
