10
-776.558204682
S  0.586609  0.067610  0.134441
O  1.781623  0.851820  0.295974
O  -0.214053  -0.378099  1.253800
O  -0.341543  0.824036  -0.895421
O  0.966641  -1.280669  -0.656825
H  -1.289141  0.537758  -0.752174
H  1.693363  -1.093470  -1.268563
O  -2.693921  -0.089402  -0.115954
H  -2.343154  -0.429248  0.719684
H  -3.436784  0.481710  0.097404
