10
-776.558138574
S  -0.590752  -0.093717  0.113224
O  -1.846184  -0.791662  0.046158
O  0.190869  0.001159  1.326198
O  0.321408  -0.643787  -1.051468
O  -0.837647  1.437096  -0.330292
H  1.276202  -0.430564  -0.844609
H  -1.563204  1.464150  -0.970793
O  2.693548  -0.046731  -0.059092
H  3.214572  0.729042  -0.282968
H  2.348511  0.088246  0.834758
