10
-776.558138482
S  0.590741  -0.093756  -0.113171
O  1.845966  -0.791981  -0.045761
O  -0.190712  0.000909  -1.326278
O  -0.321652  -0.643223  1.051604
O  0.837812  1.437202  0.329667
H  -1.276502  -0.430033  0.844497
H  1.561942  1.464356  0.971771
O  -2.693383  -0.046874  0.059042
H  -3.213299  0.729609  0.283090
H  -2.348248  0.087893  -0.834820
