10
-776.558204389
S  0.586609  -0.067491  -0.134567
O  1.781180  -0.852300  -0.296907
O  -0.214401  0.379134  -1.253345
O  -0.341344  -0.823896  0.895491
O  0.967649  1.280146  0.657200
H  -1.289120  -0.538630  0.751823
H  1.692910  1.091961  1.270387
O  -2.694367  0.089416  0.116102
H  -2.343537  0.429858  -0.719269
H  -3.435726  -0.483335  -0.098189
