10
-776.542063397
S  0.578329  0.010643  0.127748
O  -0.540451  0.913395  0.012904
O  0.909713  -0.703382  1.327627
O  0.408792  -1.029745  -1.076892
O  1.902346  0.805519  -0.294538
H  0.898812  -1.840899  -0.874599
H  1.675052  1.493744  -0.937897
O  -3.377325  -0.036618  -0.080480
H  -2.490924  0.343338  -0.095236
H  -3.760804  0.240190  0.754793
