10
-776.558138505
S  0.590750  0.093864  0.113086
O  -0.190801  0.001435  1.326252
O  1.846790  0.790587  0.045030
O  0.836226  -1.437862  -0.328276
O  -0.320923  0.643013  -1.052418
H  1.561634  -1.466403  -0.968880
H  -1.275821  0.430597  -0.845505
O  -2.693254  0.046688  -0.059039
H  -2.348362  -0.087314  0.834991
H  -3.213752  -0.729595  -0.282377
