10
-776.542064376
S  -0.575267  -0.011064  0.126181
O  0.537236  -0.918647  -0.009665
O  -0.882788  0.701950  1.332987
O  -0.421855  1.031035  -1.079031
O  -1.909902  -0.799376  -0.274861
H  -0.904619  1.843954  -0.866600
H  -1.696263  -1.488126  -0.922333
O  3.373251  0.036014  -0.080078
H  2.489607  -0.349767  -0.105214
H  3.748018  -0.236855  0.760438
