10
-776.558138272
S  -0.590845  -0.094298  0.112738
O  -1.846739  -0.791047  0.041758
O  0.190147  -0.005854  1.326634
O  0.321471  -0.638998  -1.054220
O  -0.836345  1.438943  -0.323405
H  1.276318  -0.426691  -0.846177
H  -1.560627  1.469778  -0.965187
O  2.693250  -0.046607  -0.059209
H  3.214274  0.729890  -0.280518
H  2.349282  0.084303  0.835618
