10
-776.542064292
S  0.575557  0.011017  0.126103
O  0.883524  -0.700177  1.333845
O  -0.539067  0.915650  -0.011754
O  1.908721  0.802254  -0.274142
O  0.426063  -1.032463  -1.078446
H  1.694176  1.489740  -0.922651
H  0.911519  -1.843595  -0.865335
O  -3.376013  -0.036079  -0.080129
H  -2.491514  0.347688  -0.105985
H  -3.748920  0.236426  0.761329
