10
-776.558138403
S  -0.590838  -0.093513  0.113375
O  -1.846394  -0.791248  0.047646
O  0.191109  0.002829  1.325970
O  0.320831  -0.645454  -1.051065
O  -0.837368  1.436665  -0.331989
H  1.275684  -0.432772  -0.844678
H  -1.561938  1.463157  -0.973639
O  2.694333  -0.047008  -0.058796
H  3.211837  0.730711  -0.284144
H  2.347734  0.088838  0.834336
