10
-776.558138034
S  0.590870  -0.093882  -0.113067
O  -0.190842  -0.000534  -1.326117
O  1.846069  -0.792055  -0.045145
O  0.838002  1.437533  0.328069
O  -0.321472  -0.642081  1.052512
H  1.562296  1.465538  0.969957
H  -1.276131  -0.429128  0.844846
O  -2.694614  -0.046913  0.059080
H  -2.346958  0.085160  -0.834258
H  -3.210276  0.732941  0.281328
