10
-776.558138442
S  0.590765  0.093965  0.113052
O  1.846791  0.790606  0.044388
O  -0.190866  0.002675  1.326235
O  -0.320749  0.642040  -1.053083
O  0.836243  -1.438206  -0.326929
H  -1.275583  0.429728  -0.846095
H  1.561078  -1.467240  -0.968175
O  -2.693422  0.046678  -0.059133
H  -2.348092  -0.086138  0.834910
H  -3.213631  -0.730136  -0.281304
