10
-776.558138495
S  0.590660  -0.093792  -0.113244
O  1.846272  -0.791312  -0.046113
O  -0.191408  0.000081  -1.325990
O  -0.320914  -0.643325  1.052323
O  0.837268  1.437447  0.329281
H  -1.275721  -0.430752  0.845308
H  1.562504  1.464819  0.970170
O  -2.693227  -0.046710  0.059114
H  -2.348100  0.087145  -0.834878
H  -3.213165  0.730002  0.282373
