10
-776.558204627
S  0.586543  -0.067451  -0.134525
O  -0.214320  0.379354  -1.253318
O  1.781603  -0.851495  -0.296992
O  0.966746  1.279973  0.658038
O  -0.341416  -0.824919  0.894726
H  1.693419  1.092082  1.269630
H  -1.289116  -0.539091  0.751453
O  -2.693744  0.089273  0.116073
H  -3.436472  -0.481830  -0.097723
H  -2.343470  0.430567  -0.719167
