10
-776.558204600
S  0.586499  -0.067465  -0.134494
O  1.781555  -0.851550  -0.297098
O  -0.214372  0.379544  -1.253219
O  -0.341533  -0.824964  0.894563
O  0.966981  1.279850  0.658137
H  -1.289229  -0.539094  0.751269
H  1.693971  1.091900  1.269338
O  -2.693767  0.089332  0.116140
H  -3.436264  -0.481950  -0.097957
H  -2.343362  0.430894  -0.718937
