10
-776.556142738
S  -0.567508  -0.119809  -0.082175
O  0.235844  0.196388  -1.254738
O  -1.351081  -1.317315  -0.015389
O  0.366349  0.008597  1.190814
O  -1.595528  1.077968  0.179535
H  1.321606  0.020473  0.893967
H  -1.148142  1.928238  0.061525
O  2.738289  0.093381  0.042255
H  3.379530  -0.621861  0.074351
H  2.376137  0.117932  -0.854863
