10
-776.558138467
S  0.590693  0.093836  0.113126
O  -0.190944  0.000870  1.326198
O  1.846754  0.790440  0.045473
O  0.835968  -1.437755  -0.328918
O  -0.320841  0.643585  -1.052220
H  1.561654  -1.466144  -0.969215
H  -1.275859  0.431209  -0.845614
O  -2.693165  0.046781  -0.058971
H  -3.212140  -0.730563  -0.282248
H  -2.346903  -0.087245  0.834573
