10
-776.558138410
S  0.590885  -0.093901  -0.113097
O  -0.190592  -0.001521  -1.326318
O  1.846623  -0.791014  -0.044633
O  0.836697  1.437852  0.327940
O  -0.321197  -0.642490  1.052489
H  1.561996  1.466454  0.968667
H  -1.275960  -0.429712  0.845239
O  -2.693962  -0.046742  0.059137
H  -3.212938  0.730905  0.281348
H  -2.347808  0.086094  -0.834627
