10
-776.558138524
S  -0.590803  -0.093748  0.113192
O  -1.845589  -0.792810  0.046379
O  0.190999  0.001440  1.326008
O  0.321537  -0.642639  -1.052013
O  -0.839119  1.436908  -0.329853
H  1.276340  -0.430175  -0.844671
H  -1.564528  1.463598  -0.970530
O  2.694338  -0.046739  -0.059014
H  3.214640  0.729554  -0.282750
H  2.349067  0.087710  0.834823
