10
-776.558204658
S  0.586455  -0.067696  -0.134387
O  1.783284  -0.849391  -0.294324
O  -0.214347  0.375205  -1.254763
O  -0.340499  -0.825289  0.895568
O  0.962877  1.282303  0.655795
H  -1.288474  -0.539570  0.753608
H  1.689010  1.097196  1.268869
O  -2.691885  0.089158  0.115764
H  -2.340835  0.427310  -0.720452
H  -3.438416  -0.477681  -0.096147
